/*---------------------------------------------------------------------------*\
| =========                 |                                                 |
| \\      /  F ield         | OpenFOAM: The Open Source CFD Toolbox           |
|  \\    /   O peration     | Version:  2412                                  |
|   \\  /    A nd           | Website:  www.openfoam.com                      |
|    \\/     M anipulation  |                                                 |
\*---------------------------------------------------------------------------*/
Build  : _e5c6ccc3-20250814 OPENFOAM=2412 patch=250814 version=2412
Arch   : "LSB;label=32;scalar=64"
Exec   : rhoSimpleFoam -parallel
Date   : Jan 26 2026
Time   : 03:26:17
Host   : Albert
PID    : 452468
I/O    : uncollated
Case   : /home/shafa/controlSurfaces/Aero_Fin
nProcs : 6
Hosts  :
(
    (Albert 6)
)
Pstream initialized with:
    floatTransfer      : false
    maxCommsSize       : 0
    nProcsSimpleSum    : 0
    nonBlockingExchange: 0 (tuning: 0)
    exchange algorithm : 0
    commsType          : nonBlocking
    polling iterations : 0
trapFpe: Floating point exception trapping enabled (FOAM_SIGFPE).
fileModificationChecking : Monitoring run-time modified files using timeStampMaster (fileModificationSkew 5, maxFileModificationPolls 20)
allowSystemOperations : Allowing user-supplied system call operations

// * * * * * * * * * * * * * * * * * * * * * * * * * * * * * * * * * * * * * //
Create time

--> FOAM Warning : 
    From virtual void Foam::Time::readDict()
    in file db/Time/TimeIO.C at line 403
    Reading "system/controlDict" at line 17 to 103
    Disabled output compression for non-ascii format (inefficient/ineffective)
Create mesh for time = 0


SIMPLE: convergence criteria
    field p	 tolerance 0.0001
    field U	 tolerance 0.0001
    field h	 tolerance 0.0001
    field nuTilda	 tolerance 0.0001

Reading thermophysical properties

Selecting thermodynamics package 
{
    type            hePsiThermo;
    mixture         pureMixture;
    transport       sutherland;
    thermo          hConst;
    equationOfState perfectGas;
    specie          specie;
    energy          sensibleEnthalpy;
}

Reading field U

Reading/calculating face flux field phi

Creating turbulence model

Selecting turbulence model type RAS
Selecting RAS turbulence model SpalartAllmaras
Selecting patchDistMethod meshWave
ft2 term: inactive
RAS
{
    RASModel        SpalartAllmaras;
    turbulence      on;
    printCoeffs     on;
    sigmaNut        0.66666;
    kappa           0.41;
    Cb1             0.1355;
    Cb2             0.622;
    Cw2             0.3;
    Cw3             2;
    Cv1             7.1;
    Cs              0.3;
    ck              0.07;
    ft2             false;
    Ct3             1.2;
    Ct4             0.5;
}

No MRF models present

No finite volume options present

Starting time loop

forceCoeffs forceCoeffs:
    rho: rho
    Not including porosity effects
    magUInf: 236.6
    lRef   : 0.1033
    Aref   : 0.00678
    rhoInf : 1.154
    Selecting all coefficients
    - Drag force: Cd
    - Drag force front: Cd(f)
    - Drag force rear: Cd(r)
    - Lift force: Cl
    - Lift force front: Cl(f)
    - Lift force rear: Cl(r)
    - Pitch moment: CmPitch
    - Roll moment: CmRoll
    - Yaw moment: CmYaw
    - Side force: Cs
    - Side force front: Cs(f)
    - Side force rear: Cs(r)


Time = 1

DILUPBiCGStab:  Solving for Ux, Initial residual = 0.99926825, Final residual = 0.095272635, No Iterations 1
DILUPBiCGStab:  Solving for Uy, Initial residual = 1, Final residual = 0.098288212, No Iterations 2
DILUPBiCGStab:  Solving for Uz, Initial residual = 1, Final residual = 0.011237647, No Iterations 2
DILUPBiCGStab:  Solving for h, Initial residual = 0.99995616, Final residual = 0.021591386, No Iterations 1
GAMG:  Solving for p, Initial residual = 1, Final residual = 0.0061039323, No Iterations 14
GAMG:  Solving for p, Initial residual = 0.00079029901, Final residual = 4.2095361e-06, No Iterations 4
GAMG:  Solving for p, Initial residual = 0.00020293511, Final residual = 1.3014263e-06, No Iterations 5
time step continuity errors : sum local = 0.00010780607, global = -1.4660778e-06, cumulative = -1.4660778e-06
DILUPBiCGStab:  Solving for nuTilda, Initial residual = 0.99999994, Final residual = 0.0050906829, No Iterations 1
ExecutionTime = 18.21 s  ClockTime = 19 s

--> FOAM Warning : 
    From virtual bool Foam::functionObjects::fieldSelection::checkSelection()
    in file functionObjects/fieldSelections/fieldSelection/fieldSelection.C at line 179
    Field nut not found
--> FOAM Warning : 
    From virtual bool Foam::functionObjects::fieldSelection::checkSelection()
    in file functionObjects/fieldSelections/fieldSelection/fieldSelection.C at line 179
    Field alphat not found
--> FOAM Warning : 
    From virtual bool Foam::functionObjects::fieldSelection::checkSelection()
    in file functionObjects/fieldSelections/fieldSelection/fieldSelection.C at line 179
    Field T not found
--> FOAM Warning : 
    From virtual bool Foam::functionObjects::solverFieldSelection::updateSelection()
    in file functionObjects/fieldSelections/solverFieldSelection/solverFieldSelection.C at line 82
    Valid solver fields are: 4(U h nuTilda p)forceCoeffs forceCoeffs write:
    Coefficient	Total	Pressure	Viscous	Internal
    Cd:	0.087172173	0.08252463	0.0046475423	0
    Cd(f):	0.046571694	0.044248002	0.002323692	0
    Cd(r):	0.040600479	0.038276628	0.0023238503	0
    Cl:	-0.0016325886	-0.0016326925	1.0389233e-07	0
    Cl(f):	-0.0012626254	-0.0011959979	-6.6627489e-05	0
    Cl(r):	-0.00036996328	-0.00043669467	6.6731382e-05	0
    CmPitch:	-0.00044633103	-0.0003796516	-6.6679436e-05	0
    CmRoll:	0.0029856076	0.0029856867	-7.9113967e-08	0
    CmYaw:	0.0048537041	0.0036674396	0.0011862645	0
    Cs:	0.17339474	0.17340685	-1.2103e-05	0
    Cs(f):	0.091551076	0.090370863	0.001180213	0
    Cs(r):	0.081843668	0.083035984	-0.001192316	0

    writing force and moment coefficient files.

Time = 2

DILUPBiCGStab:  Solving for Ux, Initial residual = 0.00039077994, Final residual = 4.9969363e-06, No Iterations 1
DILUPBiCGStab:  Solving for Uy, Initial residual = 0.042400422, Final residual = 0.00046625292, No Iterations 1
DILUPBiCGStab:  Solving for Uz, Initial residual = 0.0020899466, Final residual = 2.6440956e-05, No Iterations 1
DILUPBiCGStab:  Solving for h, Initial residual = 0.00027077733, Final residual = 3.8117156e-06, No Iterations 1
GAMG:  Solving for p, Initial residual = 0.0021590137, Final residual = 2.054505e-05, No Iterations 12
GAMG:  Solving for p, Initial residual = 0.00045951669, Final residual = 3.468096e-06, No Iterations 4
GAMG:  Solving for p, Initial residual = 0.00012230459, Final residual = 6.3386605e-07, No Iterations 9
time step continuity errors : sum local = 5.2554737e-05, global = 3.6997357e-06, cumulative = 2.2336579e-06
DILUPBiCGStab:  Solving for nuTilda, Initial residual = 8.4564747e-05, Final residual = 5.8032775e-07, No Iterations 1
ExecutionTime = 30.47 s  ClockTime = 31 s

forceCoeffs forceCoeffs write:
    Coefficient	Total	Pressure	Viscous	Internal
    Cd:	0.16618363	0.16155191	0.004631721	0
    Cd(f):	0.086054098	0.083738348	0.0023157497	0
    Cd(r):	0.080129535	0.077813563	0.0023159712	0
    Cl:	-0.0017987022	-0.0017986949	-7.3635397e-09	0
    Cl(f):	-0.0021056129	-0.0020392156	-6.6397249e-05	0
    Cl(r):	0.00030691063	0.00024052074	6.6389885e-05	0
    CmPitch:	-0.0012062617	-0.0011398682	-6.6393567e-05	0
    CmRoll:	0.0029622817	0.0029623925	-1.107631e-07	0
    CmYaw:	0.024404693	0.023215564	0.0011891293	0
    Cs:	0.17069337	0.17069905	-5.6758542e-06	0
    Cs(f):	0.10975138	0.10856509	0.0011862914	0
    Cs(r):	0.060941992	0.062133959	-0.0011919673	0

    writing force and moment coefficient files.

Time = 3

DILUPBiCGStab:  Solving for Ux, Initial residual = 0.00033522632, Final residual = 4.2674937e-06, No Iterations 1
DILUPBiCGStab:  Solving for Uy, Initial residual = 0.030130389, Final residual = 0.00033794683, No Iterations 1
DILUPBiCGStab:  Solving for Uz, Initial residual = 0.00089337147, Final residual = 1.1320078e-05, No Iterations 1
DILUPBiCGStab:  Solving for h, Initial residual = 0.00053631211, Final residual = 8.54619e-06, No Iterations 1
GAMG:  Solving for p, Initial residual = 0.0017475695, Final residual = 1.3889074e-05, No Iterations 11
GAMG:  Solving for p, Initial residual = 0.0009899251, Final residual = 8.6165543e-06, No Iterations 5
GAMG:  Solving for p, Initial residual = 0.00027566187, Final residual = 1.8440789e-06, No Iterations 8
time step continuity errors : sum local = 4.3192852e-05, global = -1.0474496e-05, cumulative = -8.240838e-06
DILUPBiCGStab:  Solving for nuTilda, Initial residual = 4.6759283e-05, Final residual = 4.5262693e-07, No Iterations 1
ExecutionTime = 42.6 s  ClockTime = 43 s

forceCoeffs forceCoeffs write:
    Coefficient	Total	Pressure	Viscous	Internal
    Cd:	0.16827748	0.16371363	0.0045638476	0
    Cd(f):	0.086942176	0.084660113	0.0022820628	0
    Cd(r):	0.081335306	0.079053521	0.0022817848	0
    Cl:	-0.0012303433	-0.0012298775	-4.65831e-07	0
    Cl(f):	-0.0020661875	-0.0020006981	-6.5489379e-05	0
    Cl(r):	0.00083584414	0.00077082059	6.5023548e-05	0
    CmPitch:	-0.0014510158	-0.0013857593	-6.5256463e-05	0
    CmRoll:	0.002803435	0.002803296	1.3897908e-07	0
    CmYaw:	0.023641267	0.022467149	0.001174118	0
    Cs:	0.17337345	0.17336466	8.7885314e-06	0
    Cs(f):	0.11032799	0.10914948	0.0011785123	0
    Cs(r):	0.063045457	0.064215181	-0.0011697238	0

    writing force and moment coefficient files.

Time = 4

DILUPBiCGStab:  Solving for Ux, Initial residual = 0.00020753403, Final residual = 2.5895749e-06, No Iterations 1
DILUPBiCGStab:  Solving for Uy, Initial residual = 0.014587931, Final residual = 0.00016536634, No Iterations 1
DILUPBiCGStab:  Solving for Uz, Initial residual = 0.00036786603, Final residual = 4.4174403e-06, No Iterations 1
DILUPBiCGStab:  Solving for h, Initial residual = 0.00085984636, Final residual = 1.4636964e-05, No Iterations 1
GAMG:  Solving for p, Initial residual = 0.00253055, Final residual = 1.5496436e-05, No Iterations 12
GAMG:  Solving for p, Initial residual = 0.0012651611, Final residual = 1.2163635e-05, No Iterations 4
GAMG:  Solving for p, Initial residual = 0.00030256415, Final residual = 2.4647819e-06, No Iterations 8
time step continuity errors : sum local = 7.1777179e-05, global = 6.9142613e-06, cumulative = -1.3265767e-06
DILUPBiCGStab:  Solving for nuTilda, Initial residual = 3.4321354e-05, Final residual = 5.2354852e-07, No Iterations 1
ExecutionTime = 54.68 s  ClockTime = 55 s

forceCoeffs forceCoeffs write:
    Coefficient	Total	Pressure	Viscous	Internal
    Cd:	0.11666036	0.11216817	0.0044921864	0
    Cd(f):	0.060856203	0.058609788	0.0022464151	0
    Cd(r):	0.055804155	0.053558384	0.0022457713	0
    Cl:	-0.0001191264	-0.00011828859	-8.37808e-07	0
    Cl(f):	-0.001386209	-0.0013214796	-6.4729367e-05	0
    Cl(r):	0.0012670826	0.001203191	6.3891559e-05	0
    CmPitch:	-0.0013266458	-0.0012623353	-6.4310463e-05	0
    CmRoll:	0.0025260239	0.002525702	3.2187438e-07	0
    CmYaw:	0.008816122	0.007657758	0.0011583639	0
    Cs:	0.17917294	0.17915034	2.2599951e-05	0
    Cs(f):	0.098402594	0.09723293	0.0011696639	0
    Cs(r):	0.08077035	0.081917414	-0.001147064	0

    writing force and moment coefficient files.

Time = 5

DILUPBiCGStab:  Solving for Ux, Initial residual = 0.0001353914, Final residual = 1.4942347e-06, No Iterations 1
DILUPBiCGStab:  Solving for Uy, Initial residual = 0.0056312116, Final residual = 5.4950472e-05, No Iterations 1
DILUPBiCGStab:  Solving for Uz, Initial residual = 0.00013732391, Final residual = 1.4642942e-06, No Iterations 1
DILUPBiCGStab:  Solving for h, Initial residual = 0.0014279772, Final residual = 2.5635217e-05, No Iterations 1
GAMG:  Solving for p, Initial residual = 0.00436625, Final residual = 3.1860857e-05, No Iterations 12
GAMG:  Solving for p, Initial residual = 0.00076624267, Final residual = 7.5240737e-06, No Iterations 4
GAMG:  Solving for p, Initial residual = 0.00018758275, Final residual = 1.556276e-06, No Iterations 8
time step continuity errors : sum local = 8.8047154e-05, global = 7.6348859e-06, cumulative = 6.3083092e-06
DILUPBiCGStab:  Solving for nuTilda, Initial residual = 2.9366463e-05, Final residual = 6.4466948e-07, No Iterations 1
ExecutionTime = 66.74 s  ClockTime = 67 s

forceCoeffs forceCoeffs write:
    Coefficient	Total	Pressure	Viscous	Internal
    Cd:	0.04463465	0.04019433	0.0044403194	0
    Cd(f):	0.024617437	0.022396879	0.0022205583	0
    Cd(r):	0.020017212	0.017797451	0.0022197611	0
    Cl:	0.00089945171	0.00090064178	-1.1900657e-06	0
    Cl(f):	-0.00060482085	-0.00054031089	-6.4509956e-05	0
    Cl(r):	0.0015042726	0.0014409527	6.331989e-05	0
    CmPitch:	-0.0010545467	-0.00099063178	-6.3914923e-05	0
    CmRoll:	0.0023001125	0.0022997139	3.9859232e-07	0
    CmYaw:	-0.010958674	-0.012108627	0.001149953	0
    Cs:	0.18508362	0.18505473	2.8886588e-05	0
    Cs(f):	0.081583134	0.080418737	0.0011643963	0
    Cs(r):	0.10350048	0.10463599	-0.0011355097	0

    writing force and moment coefficient files.

Time = 6

DILUPBiCGStab:  Solving for Ux, Initial residual = 0.00010487991, Final residual = 6.7294633e-07, No Iterations 1
DILUPBiCGStab:  Solving for Uy, Initial residual = 0.0022617158, Final residual = 4.2134552e-05, No Iterations 1
DILUPBiCGStab:  Solving for Uz, Initial residual = 4.2694282e-05, Final residual = 9.3362729e-07, No Iterations 1
DILUPBiCGStab:  Solving for h, Initial residual = 0.0036407902, Final residual = 6.9569405e-05, No Iterations 1
GAMG:  Solving for p, Initial residual = 0.025850107, Final residual = 0.00016199026, No Iterations 12
GAMG:  Solving for p, Initial residual = 0.00066700298, Final residual = 5.5821537e-06, No Iterations 4
GAMG:  Solving for p, Initial residual = 0.00016466076, Final residual = 1.3328215e-06, No Iterations 8
time step continuity errors : sum local = 7.3945241e-05, global = -2.0347078e-06, cumulative = 4.2736015e-06
DILUPBiCGStab:  Solving for nuTilda, Initial residual = 2.589154e-05, Final residual = 6.5581254e-07, No Iterations 1
ExecutionTime = 78.81 s  ClockTime = 79 s

forceCoeffs forceCoeffs write:
    Coefficient	Total	Pressure	Viscous	Internal
    Cd:	-0.016240086	-0.020648627	0.0044085412	0
    Cd(f):	-0.0059163577	-0.0081210062	0.0022046485	0
    Cd(r):	-0.010323728	-0.012527621	0.0022038927	0
    Cl:	0.0014336769	0.0014351728	-1.4958757e-06	0
    Cl(f):	-2.322727e-05	4.1534898e-05	-6.4762168e-05	0
    Cl(r):	0.0014569042	0.0013936379	6.3266292e-05	0
    CmPitch:	-0.00074006573	-0.0006760515	-6.401423e-05	0
    CmRoll:	0.0022036853	0.0022033074	3.7787352e-07	0
    CmYaw:	-0.027109357	-0.028257353	0.0011479959	0
    Cs:	0.18857625	0.188549	2.7243123e-05	0
    Cs(f):	0.067178767	0.066017149	0.0011616174	0
    Cs(r):	0.12139748	0.12253186	-0.0011343743	0

    writing force and moment coefficient files.

Time = 7

DILUPBiCGStab:  Solving for Ux, Initial residual = 0.00012026455, Final residual = 8.0017478e-07, No Iterations 1
DILUPBiCGStab:  Solving for Uy, Initial residual = 0.0068147081, Final residual = 0.00011967669, No Iterations 1
DILUPBiCGStab:  Solving for Uz, Initial residual = 0.00010028849, Final residual = 2.5089053e-06, No Iterations 1
DILUPBiCGStab:  Solving for h, Initial residual = 0.0041020205, Final residual = 8.6362529e-05, No Iterations 1
GAMG:  Solving for p, Initial residual = 0.0070355663, Final residual = 5.2269384e-05, No Iterations 10
GAMG:  Solving for p, Initial residual = 0.00077125759, Final residual = 5.6857114e-06, No Iterations 4
GAMG:  Solving for p, Initial residual = 0.00018817665, Final residual = 1.675426e-06, No Iterations 8
time step continuity errors : sum local = 5.6732758e-05, global = -4.4783864e-06, cumulative = -2.0478495e-07
DILUPBiCGStab:  Solving for nuTilda, Initial residual = 2.205794e-05, Final residual = 5.4750748e-07, No Iterations 1
ExecutionTime = 90.5 s  ClockTime = 91 s

forceCoeffs forceCoeffs write:
    Coefficient	Total	Pressure	Viscous	Internal
    Cd:	-0.047306632	-0.051699048	0.004392416	0
    Cd(f):	-0.02143031	-0.023626746	0.0021964357	0
    Cd(r):	-0.025876322	-0.028072303	0.0021959803	0
    Cl:	0.0014434293	0.0014449884	-1.5590528e-06	0
    Cl(f):	0.00027853441	0.00034369927	-6.5164861e-05	0
    Cl(r):	0.0011648949	0.0011012891	6.3605808e-05	0
    CmPitch:	-0.00044318026	-0.00037879492	-6.4385334e-05	0
    CmRoll:	0.0022230062	0.0022227785	2.277173e-07	0
    CmYaw:	-0.034673939	-0.035824325	0.0011503861	0
    Cs:	0.18850162	0.18848219	1.9431372e-05	0
    Cs(f):	0.059576871	0.058416769	0.0011601018	0
    Cs(r):	0.12892475	0.13006542	-0.0011406704	0

    writing force and moment coefficient files.

Time = 8

DILUPBiCGStab:  Solving for Ux, Initial residual = 0.00012545643, Final residual = 1.0185416e-06, No Iterations 1
DILUPBiCGStab:  Solving for Uy, Initial residual = 0.013858433, Final residual = 0.00021507458, No Iterations 1
DILUPBiCGStab:  Solving for Uz, Initial residual = 0.0001432825, Final residual = 3.0836027e-06, No Iterations 1
DILUPBiCGStab:  Solving for h, Initial residual = 0.00120166, Final residual = 2.5911081e-05, No Iterations 1
GAMG:  Solving for p, Initial residual = 0.005075707, Final residual = 3.3883666e-05, No Iterations 11
GAMG:  Solving for p, Initial residual = 0.0035523663, Final residual = 2.5517863e-05, No Iterations 8
GAMG:  Solving for p, Initial residual = 0.00085277461, Final residual = 7.4313172e-06, No Iterations 5
time step continuity errors : sum local = 3.5807456e-05, global = 4.7930687e-06, cumulative = 4.5882838e-06
DILUPBiCGStab:  Solving for nuTilda, Initial residual = 1.9864995e-05, Final residual = 4.4349326e-07, No Iterations 1
ExecutionTime = 102.6 s  ClockTime = 103 s

forceCoeffs forceCoeffs write:
    Coefficient	Total	Pressure	Viscous	Internal
    Cd:	-0.045761256	-0.050147601	0.004386345	0
    Cd(f):	-0.020630037	-0.022823232	0.0021931953	0
    Cd(r):	-0.025131219	-0.027324368	0.0021931497	0
    Cl:	0.0011856512	0.0011870869	-1.4357026e-06	0
    Cl(f):	0.00039762939	0.00046308432	-6.5454937e-05	0
    Cl(r):	0.0007880218	0.00072400257	6.4019235e-05	0
    CmPitch:	-0.00019519621	-0.00013045912	-6.4737086e-05	0
    CmRoll:	0.0022505907	0.0022505679	2.279285e-08	0
    CmYaw:	-0.033121095	-0.034275906	0.0011548107	0
    Cs:	0.18527417	0.18526591	8.2630314e-06	0
    Cs(f):	0.059515992	0.05835705	0.0011589422	0
    Cs(r):	0.12575818	0.12690886	-0.0011506791	0

    writing force and moment coefficient files.

Time = 9

DILUPBiCGStab:  Solving for Ux, Initial residual = 0.00010347366, Final residual = 9.2549377e-07, No Iterations 1
DILUPBiCGStab:  Solving for Uy, Initial residual = 0.032775912, Final residual = 0.00039869391, No Iterations 1
DILUPBiCGStab:  Solving for Uz, Initial residual = 0.00014289819, Final residual = 2.4029332e-06, No Iterations 1
DILUPBiCGStab:  Solving for h, Initial residual = 0.00075629263, Final residual = 1.554742e-05, No Iterations 1
GAMG:  Solving for p, Initial residual = 0.0061340805, Final residual = 3.9679287e-05, No Iterations 13
GAMG:  Solving for p, Initial residual = 0.0010324775, Final residual = 6.8720195e-06, No Iterations 8
GAMG:  Solving for p, Initial residual = 0.00019914448, Final residual = 1.8674561e-06, No Iterations 4
time step continuity errors : sum local = 3.6992995e-05, global = 5.6561008e-06, cumulative = 1.0244385e-05
DILUPBiCGStab:  Solving for nuTilda, Initial residual = 1.8985554e-05, Final residual = 3.7919495e-07, No Iterations 1
ExecutionTime = 114.92 s  ClockTime = 115 s

forceCoeffs forceCoeffs write:
    Coefficient	Total	Pressure	Viscous	Internal
    Cd:	-0.020973635	-0.025356419	0.004382784	0
    Cd(f):	-0.0082428856	-0.010434117	0.0021912317	0
    Cd(r):	-0.01273075	-0.014922302	0.0021915522	0
    Cl:	0.00086750813	0.00086876975	-1.2616111e-06	0
    Cl(f):	0.00043664062	0.00050212887	-6.5488247e-05	0
    Cl(r):	0.00043086751	0.00036664087	6.4226636e-05	0
    CmPitch:	2.8865572e-06	6.7743999e-05	-6.4857442e-05	0
    CmRoll:	0.0022439321	0.0022440923	-1.6026569e-07	0
    CmYaw:	-0.025280845	-0.026439606	0.0011587611	0
    Cs:	0.18037951	0.18038248	-2.9729604e-06	0
    Cs(f):	0.064908909	0.063751635	0.0011572746	0
    Cs(r):	0.1154706	0.11663085	-0.0011602476	0

    writing force and moment coefficient files.

Time = 10

DILUPBiCGStab:  Solving for Ux, Initial residual = 8.3432566e-05, Final residual = 9.1767238e-07, No Iterations 1
DILUPBiCGStab:  Solving for Uy, Initial residual = 0.022313315, Final residual = 0.00027287602, No Iterations 1
DILUPBiCGStab:  Solving for Uz, Initial residual = 8.8413133e-05, Final residual = 1.037956e-06, No Iterations 1
DILUPBiCGStab:  Solving for h, Initial residual = 0.00057230627, Final residual = 1.1354057e-05, No Iterations 1
GAMG:  Solving for p, Initial residual = 0.011244542, Final residual = 8.5406441e-05, No Iterations 13
GAMG:  Solving for p, Initial residual = 0.00067097428, Final residual = 4.6613156e-06, No Iterations 8
GAMG:  Solving for p, Initial residual = 0.0001394459, Final residual = 1.3675572e-06, No Iterations 4
time step continuity errors : sum local = 4.2909037e-05, global = 5.5454906e-06, cumulative = 1.5789875e-05
DILUPBiCGStab:  Solving for nuTilda, Initial residual = 1.8807477e-05, Final residual = 3.5077313e-07, No Iterations 1
ExecutionTime = 127.25 s  ClockTime = 128 s

forceCoeffs forceCoeffs write:
    Coefficient	Total	Pressure	Viscous	Internal
    Cd:	0.011775017	0.0074004529	0.0043745638	0
    Cd(f):	0.0081202153	0.0059332138	0.0021870015	0
    Cd(r):	0.0036548014	0.0014672391	0.0021875623	0
    Cl:	0.0005460448	0.00054719896	-1.1541636e-06	0
    Cl(f):	0.00036746368	0.00043271839	-6.5254706e-05	0
    Cl(r):	0.00017858111	0.00011448057	6.4100542e-05	0
    CmPitch:	9.4441286e-05	0.00015911891	-6.4677624e-05	0
    CmRoll:	0.002232707	0.0022329873	-2.8038204e-07	0
    CmYaw:	-0.015589943	-0.016749998	0.0011600551	0
    Cs:	0.17576027	0.17577217	-1.1897227e-05	0
    Cs(f):	0.072290191	0.071136085	0.0011541065	0
    Cs(r):	0.10347008	0.10463608	-0.0011660037	0

    writing force and moment coefficient files.

Time = 11

DILUPBiCGStab:  Solving for Ux, Initial residual = 0.00012424995, Final residual = 1.0623993e-06, No Iterations 1
DILUPBiCGStab:  Solving for Uy, Initial residual = 0.013410484, Final residual = 0.00034464847, No Iterations 1
DILUPBiCGStab:  Solving for Uz, Initial residual = 7.5276212e-05, Final residual = 1.5101496e-06, No Iterations 1
DILUPBiCGStab:  Solving for h, Initial residual = 0.00045535235, Final residual = 8.9171072e-06, No Iterations 1
GAMG:  Solving for p, Initial residual = 0.033592535, Final residual = 0.0002116815, No Iterations 13
GAMG:  Solving for p, Initial residual = 0.00060033112, Final residual = 5.709424e-06, No Iterations 5
GAMG:  Solving for p, Initial residual = 0.00013650403, Final residual = 1.0522335e-06, No Iterations 8
time step continuity errors : sum local = 3.0285884e-05, global = 7.2703081e-06, cumulative = 2.3060183e-05
DILUPBiCGStab:  Solving for nuTilda, Initial residual = 1.8867792e-05, Final residual = 3.5632716e-07, No Iterations 1
ExecutionTime = 139.8 s  ClockTime = 140 s

forceCoeffs forceCoeffs write:
    Coefficient	Total	Pressure	Viscous	Internal
    Cd:	0.038374775	0.034017335	0.0043574401	0
    Cd(f):	0.021465263	0.019286854	0.0021784091	0
    Cd(r):	0.016909512	0.014730481	0.002179031	0
    Cl:	0.00020568072	0.00020684783	-1.1671121e-06	0
    Cl(f):	0.00017424456	0.00023903071	-6.4786145e-05	0
    Cl(r):	3.1436156e-05	-3.2182876e-05	6.3619032e-05	0
    CmPitch:	7.1404203e-05	0.00013560679	-6.4202588e-05	0
    CmRoll:	0.0022778758	0.0022781867	-3.1091643e-07	0
    CmYaw:	-0.008081637	-0.009239392	0.001157755	0
    Cs:	0.17308811	0.17310526	-1.7141321e-05	0
    Cs(f):	0.07846242	0.077313236	0.0011491843	0
    Cs(r):	0.094625694	0.09579202	-0.0011663256	0

    writing force and moment coefficient files.

Time = 12

DILUPBiCGStab:  Solving for Ux, Initial residual = 0.00016727164, Final residual = 1.1377259e-06, No Iterations 1
DILUPBiCGStab:  Solving for Uy, Initial residual = 0.035894219, Final residual = 0.0010236771, No Iterations 1
DILUPBiCGStab:  Solving for Uz, Initial residual = 0.00011167559, Final residual = 3.0636664e-06, No Iterations 1
DILUPBiCGStab:  Solving for h, Initial residual = 0.00037392075, Final residual = 7.1622953e-06, No Iterations 1
GAMG:  Solving for p, Initial residual = 0.0086399596, Final residual = 6.8748437e-05, No Iterations 9
GAMG:  Solving for p, Initial residual = 0.00075178424, Final residual = 5.2536331e-06, No Iterations 8
GAMG:  Solving for p, Initial residual = 0.00016928584, Final residual = 1.5412604e-06, No Iterations 5
time step continuity errors : sum local = 2.5372286e-05, global = 2.964898e-06, cumulative = 2.6025081e-05
DILUPBiCGStab:  Solving for nuTilda, Initial residual = 1.9039634e-05, Final residual = 3.9189014e-07, No Iterations 1
ExecutionTime = 151.53 s  ClockTime = 152 s

forceCoeffs forceCoeffs write:
    Coefficient	Total	Pressure	Viscous	Internal
    Cd:	0.050632532	0.04630114	0.004331392	0
    Cd(f):	0.027697182	0.025531737	0.0021654447	0
    Cd(r):	0.02293535	0.020769402	0.0021659473	0
    Cl:	-7.2364528e-05	-7.1046405e-05	-1.3181231e-06	0
    Cl(f):	-5.9394484e-05	4.8003789e-06	-6.4194863e-05	0
    Cl(r):	-1.2970044e-05	-7.5846784e-05	6.287674e-05	0
    CmPitch:	-2.321222e-05	4.0323581e-05	-6.3535802e-05	0
    CmRoll:	0.002380916	0.0023811673	-2.5127985e-07	0
    CmYaw:	-0.0050049199	-0.0061572724	0.0011523525	0
    Cs:	0.17304532	0.17306423	-1.891091e-05	0
    Cs(f):	0.081517738	0.080374841	0.001142897	0
    Cs(r):	0.091527578	0.092689385	-0.0011618079	0

    writing force and moment coefficient files.

Time = 13

DILUPBiCGStab:  Solving for Ux, Initial residual = 0.000160396, Final residual = 1.150597e-06, No Iterations 1
DILUPBiCGStab:  Solving for Uy, Initial residual = 0.027373086, Final residual = 0.00073466729, No Iterations 1
DILUPBiCGStab:  Solving for Uz, Initial residual = 0.00010825723, Final residual = 3.1564716e-06, No Iterations 1
DILUPBiCGStab:  Solving for h, Initial residual = 0.00031415239, Final residual = 5.7242172e-06, No Iterations 1
GAMG:  Solving for p, Initial residual = 0.0073422303, Final residual = 6.9650982e-05, No Iterations 9
GAMG:  Solving for p, Initial residual = 0.0060632566, Final residual = 3.6788934e-05, No Iterations 8
GAMG:  Solving for p, Initial residual = 0.001453445, Final residual = 6.6094958e-06, No Iterations 8
time step continuity errors : sum local = 9.5438617e-06, global = -2.0987598e-06, cumulative = 2.3926321e-05
DILUPBiCGStab:  Solving for nuTilda, Initial residual = 1.9422522e-05, Final residual = 4.4677415e-07, No Iterations 1
ExecutionTime = 163.9 s  ClockTime = 164 s

forceCoeffs forceCoeffs write:
    Coefficient	Total	Pressure	Viscous	Internal
    Cd:	0.047942119	0.043642218	0.0042999016	0
    Cd(f):	0.02653716	0.02438738	0.0021497798	0
    Cd(r):	0.02140496	0.019254838	0.0021501218	0
    Cl:	-0.00039673582	-0.00039526344	-1.4723833e-06	0
    Cl(f):	-0.00035739867	-0.00029381098	-6.3587686e-05	0
    Cl(r):	-3.9337154e-05	-0.00010145246	6.2115302e-05	0
    CmPitch:	-0.00015903076	-9.6179264e-05	-6.2851494e-05	0
    CmRoll:	0.0025660999	0.0025662709	-1.7100074e-07	0
    CmYaw:	-0.0063604137	-0.0075057893	0.0011453755	0
    Cs:	0.17518922	0.17520771	-1.8492274e-05	0
    Cs(f):	0.081234195	0.080098065	0.0011361294	0
    Cs(r):	0.093955022	0.095109644	-0.0011546217	0

    writing force and moment coefficient files.

Time = 14

DILUPBiCGStab:  Solving for Ux, Initial residual = 0.00011911678, Final residual = 8.010458e-07, No Iterations 1
DILUPBiCGStab:  Solving for Uy, Initial residual = 0.0087233771, Final residual = 0.0001647125, No Iterations 1
DILUPBiCGStab:  Solving for Uz, Initial residual = 7.4296869e-05, Final residual = 2.1673113e-06, No Iterations 1
DILUPBiCGStab:  Solving for h, Initial residual = 0.00026499343, Final residual = 4.7086106e-06, No Iterations 1
GAMG:  Solving for p, Initial residual = 0.0084695231, Final residual = 7.8811361e-05, No Iterations 11
GAMG:  Solving for p, Initial residual = 0.0011073425, Final residual = 8.6238897e-06, No Iterations 8
GAMG:  Solving for p, Initial residual = 0.00020630547, Final residual = 2.0016227e-06, No Iterations 5
time step continuity errors : sum local = 2.0540702e-05, global = -3.4788094e-06, cumulative = 2.0447512e-05
DILUPBiCGStab:  Solving for nuTilda, Initial residual = 1.9988225e-05, Final residual = 5.0254138e-07, No Iterations 1
ExecutionTime = 176.14 s  ClockTime = 177 s

forceCoeffs forceCoeffs write:
    Coefficient	Total	Pressure	Viscous	Internal
    Cd:	0.035424733	0.031156594	0.0042681391	0
    Cd(f):	0.020498447	0.018364481	0.0021339665	0
    Cd(r):	0.014926286	0.012792113	0.0021341726	0
    Cl:	-0.00073545125	-0.00073386626	-1.5849898e-06	0
    Cl(f):	-0.00066568121	-0.00060264214	-6.3039067e-05	0
    Cl(r):	-6.977004e-05	-0.00013122412	6.1454077e-05	0
    CmPitch:	-0.00029795559	-0.00023570901	-6.2246572e-05	0
    CmRoll:	0.0027860808	0.0027861838	-1.0307118e-07	0
    CmYaw:	-0.010492942	-0.01163164	0.0011386977	0
    Cs:	0.17836012	0.17837782	-1.7702773e-05	0
    Cs(f):	0.078687118	0.077557271	0.0011298463	0
    Cs(r):	0.099673002	0.10082055	-0.0011475491	0

    writing force and moment coefficient files.

Time = 15

DILUPBiCGStab:  Solving for Ux, Initial residual = 7.6273956e-05, Final residual = 7.7835972e-07, No Iterations 1
DILUPBiCGStab:  Solving for Uy, Initial residual = 0.0038795374, Final residual = 6.0360451e-05, No Iterations 1
DILUPBiCGStab:  Solving for Uz, Initial residual = 3.9277438e-05, Final residual = 8.2918208e-07, No Iterations 1
DILUPBiCGStab:  Solving for h, Initial residual = 0.00022809414, Final residual = 4.1882673e-06, No Iterations 1
GAMG:  Solving for p, Initial residual = 0.013132757, Final residual = 9.1862608e-05, No Iterations 14
GAMG:  Solving for p, Initial residual = 0.00075711737, Final residual = 6.7298081e-06, No Iterations 8
GAMG:  Solving for p, Initial residual = 0.00015011716, Final residual = 1.1617146e-06, No Iterations 8
time step continuity errors : sum local = 1.6927995e-05, global = 1.6127949e-06, cumulative = 2.2060307e-05
DILUPBiCGStab:  Solving for nuTilda, Initial residual = 2.0577557e-05, Final residual = 5.2774954e-07, No Iterations 1
ExecutionTime = 189.55 s  ClockTime = 190 s

forceCoeffs forceCoeffs write:
    Coefficient	Total	Pressure	Viscous	Internal
    Cd:	0.020488587	0.016248684	0.0042399029	0
    Cd(f):	0.01320235	0.011082487	0.0021198627	0
    Cd(r):	0.0072862371	0.005166197	0.0021200402	0
    Cl:	-0.0009854028	-0.00098381851	-1.5842862e-06	0
    Cl(f):	-0.00088560203	-0.00082301721	-6.2584812e-05	0
    Cl(r):	-9.9800773e-05	-0.0001608013	6.1000526e-05	0
    CmPitch:	-0.00039290063	-0.00033110796	-6.1792669e-05	0
    CmRoll:	0.0029580565	0.0029581452	-8.8715732e-08	0
    CmYaw:	-0.015128846	-0.016262397	0.0011335508	0
    Cs:	0.18121124	0.18122918	-1.7939728e-05	0
    Cs(f):	0.075476775	0.074352194	0.0011245809	0
    Cs(r):	0.10573447	0.10687699	-0.0011425206	0

    writing force and moment coefficient files.

Time = 16

DILUPBiCGStab:  Solving for Ux, Initial residual = 6.0116618e-05, Final residual = 8.4998144e-07, No Iterations 1
DILUPBiCGStab:  Solving for Uy, Initial residual = 0.0043977561, Final residual = 0.00013260535, No Iterations 1
DILUPBiCGStab:  Solving for Uz, Initial residual = 3.4131126e-05, Final residual = 5.8052989e-07, No Iterations 1
DILUPBiCGStab:  Solving for h, Initial residual = 0.00019622153, Final residual = 3.9780278e-06, No Iterations 1
GAMG:  Solving for p, Initial residual = 0.13960919, Final residual = 0.0013800158, No Iterations 12
GAMG:  Solving for p, Initial residual = 0.00077506402, Final residual = 4.7083187e-06, No Iterations 8
GAMG:  Solving for p, Initial residual = 0.00015814832, Final residual = 1.3727547e-06, No Iterations 8
time step continuity errors : sum local = 1.6577637e-05, global = 1.8932745e-06, cumulative = 2.3953581e-05
DILUPBiCGStab:  Solving for nuTilda, Initial residual = 2.1181282e-05, Final residual = 5.0930766e-07, No Iterations 1
ExecutionTime = 202.47 s  ClockTime = 203 s

forceCoeffs forceCoeffs write:
    Coefficient	Total	Pressure	Viscous	Internal
    Cd:	0.0092905489	0.0050741731	0.0042163758	0
    Cd(f):	0.0076644397	0.0055563768	0.0021080628	0
    Cd(r):	0.0016261092	-0.00048220374	0.0021083129	0
    Cl:	-0.0010511999	-0.0010497229	-1.4770152e-06	0
    Cl(f):	-0.0009349002	-0.00087267171	-6.2228484e-05	0
    Cl(r):	-0.00011629969	-0.00017705116	6.0751469e-05	0
    CmPitch:	-0.00040930025	-0.00034781028	-6.1489977e-05	0
    CmRoll:	0.0030191652	0.0030192903	-1.2504905e-07	0
    CmYaw:	-0.018432022	-0.019562135	0.0011301132	0
    Cs:	0.18278699	0.18280678	-1.9790696e-05	0
    Cs(f):	0.072961473	0.071841256	0.0011202178	0
    Cs(r):	0.10982552	0.11096553	-0.0011400085	0

    writing force and moment coefficient files.

Time = 17

DILUPBiCGStab:  Solving for Ux, Initial residual = 8.8286874e-05, Final residual = 6.6425885e-07, No Iterations 1
DILUPBiCGStab:  Solving for Uy, Initial residual = 0.0069579534, Final residual = 0.00023557957, No Iterations 1
DILUPBiCGStab:  Solving for Uz, Initial residual = 4.4340518e-05, Final residual = 8.7820711e-07, No Iterations 1
DILUPBiCGStab:  Solving for h, Initial residual = 0.00016898278, Final residual = 3.7996135e-06, No Iterations 1
GAMG:  Solving for p, Initial residual = 0.020562024, Final residual = 0.00016763257, No Iterations 11
GAMG:  Solving for p, Initial residual = 0.0013504122, Final residual = 1.3359233e-05, No Iterations 7
GAMG:  Solving for p, Initial residual = 0.00029867307, Final residual = 1.7556868e-06, No Iterations 8
time step continuity errors : sum local = 9.5761086e-06, global = -2.235943e-06, cumulative = 2.1717638e-05
DILUPBiCGStab:  Solving for nuTilda, Initial residual = 2.1788256e-05, Final residual = 4.7188653e-07, No Iterations 1
ExecutionTime = 215 s  ClockTime = 215 s

forceCoeffs forceCoeffs write:
    Coefficient	Total	Pressure	Viscous	Internal
    Cd:	0.0049113843	0.00071411569	0.0041972686	0
    Cd(f):	0.0054090451	0.0033106082	0.0020984369	0
    Cd(r):	-0.00049766072	-0.0025964925	0.0020988318	0
    Cl:	-0.0009027344	-0.00090142559	-1.3088021e-06	0
    Cl(f):	-0.00080616385	-0.00074421549	-6.1948359e-05	0
    Cl(r):	-9.6570549e-05	-0.00015721011	6.0639556e-05	0
    CmPitch:	-0.00035479665	-0.00029350269	-6.1293958e-05	0
    CmRoll:	0.0029533529	0.0029535503	-1.9743197e-07	0
    CmYaw:	-0.019543915	-0.020671963	0.0011280476	0
    Cs:	0.18280765	0.18283083	-2.3183463e-05	0
    Cs(f):	0.071859908	0.070743452	0.0011164559	0
    Cs(r):	0.11094774	0.11208738	-0.0011396394	0

    writing force and moment coefficient files.

Time = 18

DILUPBiCGStab:  Solving for Ux, Initial residual = 0.0001097242, Final residual = 5.246628e-07, No Iterations 1
DILUPBiCGStab:  Solving for Uy, Initial residual = 0.010325458, Final residual = 0.00035185032, No Iterations 1
DILUPBiCGStab:  Solving for Uz, Initial residual = 4.5911787e-05, Final residual = 9.4515695e-07, No Iterations 1
DILUPBiCGStab:  Solving for h, Initial residual = 0.00014942479, Final residual = 3.4712743e-06, No Iterations 1
GAMG:  Solving for p, Initial residual = 0.017616498, Final residual = 0.00013069857, No Iterations 9
GAMG:  Solving for p, Initial residual = 0.0032414424, Final residual = 1.7017639e-05, No Iterations 8
GAMG:  Solving for p, Initial residual = 0.00062673601, Final residual = 5.1664589e-06, No Iterations 4
time step continuity errors : sum local = 1.1021846e-05, global = 6.5723775e-07, cumulative = 2.2374876e-05
DILUPBiCGStab:  Solving for nuTilda, Initial residual = 2.2459945e-05, Final residual = 4.4415386e-07, No Iterations 1
ExecutionTime = 226.6 s  ClockTime = 227 s

forceCoeffs forceCoeffs write:
    Coefficient	Total	Pressure	Viscous	Internal
    Cd:	0.0070635996	0.0028827114	0.0041808882	0
    Cd(f):	0.006336609	0.0042464512	0.0020901578	0
    Cd(r):	0.00072699063	-0.0013637398	0.0020907305	0
    Cl:	-0.00063102791	-0.00062988943	-1.1384792e-06	0
    Cl(f):	-0.00058310504	-0.00052139338	-6.1711667e-05	0
    Cl(r):	-4.7922867e-05	-0.00010849605	6.0573187e-05	0
    CmPitch:	-0.00026759109	-0.00020644866	-6.1142427e-05	0
    CmRoll:	0.0028048092	0.0028050955	-2.8634666e-07	0
    CmYaw:	-0.018637146	-0.019763779	0.0011266326	0
    Cs:	0.1816061	0.1816336	-2.7506796e-05	0
    Cs(f):	0.072165902	0.071053023	0.0011128792	0
    Cs(r):	0.10944019	0.11058058	-0.001140386	0

    writing force and moment coefficient files.

Time = 19

DILUPBiCGStab:  Solving for Ux, Initial residual = 0.00010626077, Final residual = 9.808985e-06, No Iterations 1
DILUPBiCGStab:  Solving for Uy, Initial residual = 0.017026492, Final residual = 0.00046669489, No Iterations 1
DILUPBiCGStab:  Solving for Uz, Initial residual = 3.6165765e-05, Final residual = 6.7433525e-07, No Iterations 1
DILUPBiCGStab:  Solving for h, Initial residual = 0.00015955963, Final residual = 3.2713338e-06, No Iterations 1
GAMG:  Solving for p, Initial residual = 0.024884326, Final residual = 0.00014639466, No Iterations 11
GAMG:  Solving for p, Initial residual = 0.00090637715, Final residual = 6.9303827e-06, No Iterations 8
GAMG:  Solving for p, Initial residual = 0.00017885462, Final residual = 1.4925798e-06, No Iterations 4
time step continuity errors : sum local = 1.0883128e-05, global = 1.1831339e-06, cumulative = 2.355801e-05
DILUPBiCGStab:  Solving for nuTilda, Initial residual = 2.3230234e-05, Final residual = 4.3052048e-07, No Iterations 1
ExecutionTime = 238.59 s  ClockTime = 239 s

forceCoeffs forceCoeffs write:
    Coefficient	Total	Pressure	Viscous	Internal
    Cd:	0.013127362	0.0089617298	0.0041656318	0
    Cd(f):	0.0091845066	0.0071020592	0.0020824474	0
    Cd(r):	0.003942855	0.0018596706	0.0020831844	0
    Cl:	-0.0002955776	-0.00029456091	-1.0166854e-06	0
    Cl(f):	-0.00031427907	-0.00025278345	-6.1495625e-05	0
    Cl(r):	1.8701474e-05	-4.1777466e-05	6.047894e-05	0
    CmPitch:	-0.00016649027	-0.00010550299	-6.0987282e-05	0
    CmRoll:	0.0026208258	0.0026211943	-3.6848428e-07	0
    CmYaw:	-0.016583082	-0.017708243	0.0011251606	0
    Cs:	0.17986247	0.17989445	-3.1973192e-05	0
    Cs(f):	0.073348155	0.072238981	0.001109174	0
    Cs(r):	0.10651432	0.10765547	-0.0011411472	0

    writing force and moment coefficient files.

Time = 20

DILUPBiCGStab:  Solving for Ux, Initial residual = 8.3908238e-05, Final residual = 8.0221633e-06, No Iterations 1
DILUPBiCGStab:  Solving for Uy, Initial residual = 0.015654283, Final residual = 0.00026312442, No Iterations 1
DILUPBiCGStab:  Solving for Uz, Initial residual = 2.6965885e-05, Final residual = 4.0123235e-07, No Iterations 1
DILUPBiCGStab:  Solving for h, Initial residual = 0.00014562399, Final residual = 2.7534342e-06, No Iterations 1
GAMG:  Solving for p, Initial residual = 0.17889737, Final residual = 0.0015748745, No Iterations 12
GAMG:  Solving for p, Initial residual = 0.00068695008, Final residual = 4.7888573e-06, No Iterations 8
GAMG:  Solving for p, Initial residual = 0.00014047344, Final residual = 1.0907521e-06, No Iterations 8
time step continuity errors : sum local = 9.766418e-06, global = -1.0796118e-06, cumulative = 2.2478398e-05
DILUPBiCGStab:  Solving for nuTilda, Initial residual = 2.4081046e-05, Final residual = 4.3002846e-07, No Iterations 1
ExecutionTime = 251.43 s  ClockTime = 252 s

forceCoeffs forceCoeffs write:
    Coefficient	Total	Pressure	Viscous	Internal
    Cd:	0.01976749	0.015617939	0.0041495515	0
    Cd(f):	0.012352929	0.010278589	0.0020743399	0
    Cd(r):	0.0074145613	0.0053393497	0.0020752117	0
    Cl:	-1.1477872e-05	-1.0516216e-05	-9.6165655e-07	0
    Cl(f):	-9.3464378e-05	-3.2188271e-05	-6.1276107e-05	0
    Cl(r):	8.1986506e-05	2.1672055e-05	6.031445e-05	0
    CmPitch:	-8.7725442e-05	-2.6930163e-05	-6.0795279e-05	0
    CmRoll:	0.0024691838	0.0024696197	-4.3588893e-07	0
    CmYaw:	-0.014440608	-0.015563686	0.0011230783	0
    Cs:	0.17829291	0.17832889	-3.5974193e-05	0
    Cs(f):	0.074705849	0.073600757	0.0011050912	0
    Cs(r):	0.10358706	0.10472813	-0.0011410654	0

    writing force and moment coefficient files.

Time = 21

DILUPBiCGStab:  Solving for Ux, Initial residual = 5.8130067e-05, Final residual = 3.3534396e-07, No Iterations 1
DILUPBiCGStab:  Solving for Uy, Initial residual = 0.012375636, Final residual = 0.00029607945, No Iterations 1
DILUPBiCGStab:  Solving for Uz, Initial residual = 2.9154626e-05, Final residual = 4.2689523e-07, No Iterations 1
DILUPBiCGStab:  Solving for h, Initial residual = 0.00014368735, Final residual = 2.3974251e-06, No Iterations 1
GAMG:  Solving for p, Initial residual = 0.018479774, Final residual = 0.00011388911, No Iterations 15
GAMG:  Solving for p, Initial residual = 0.000659043, Final residual = 4.3158799e-06, No Iterations 8
GAMG:  Solving for p, Initial residual = 0.00014761153, Final residual = 1.3322711e-06, No Iterations 4
time step continuity errors : sum local = 9.8149727e-06, global = 1.3146743e-06, cumulative = 2.3793072e-05
DILUPBiCGStab:  Solving for nuTilda, Initial residual = 2.5019952e-05, Final residual = 4.3667176e-07, No Iterations 1
ExecutionTime = 264.19 s  ClockTime = 265 s

forceCoeffs forceCoeffs write:
    Coefficient	Total	Pressure	Viscous	Internal
    Cd:	0.024321633	0.020190217	0.0041314161	0
    Cd(f):	0.014552542	0.012487313	0.0020652295	0
    Cd(r):	0.0097690913	0.0077029046	0.0020661867	0
    Cl:	0.000140254	0.00014123047	-9.7647557e-07	0
    Cl(f):	2.214956e-05	8.3185563e-05	-6.1036003e-05	0
    Cl(r):	0.00011810444	5.804491e-05	6.0059527e-05	0
    CmPitch:	-4.7977439e-05	1.2570326e-05	-6.0547765e-05	0
    CmRoll:	0.0023917254	0.0023922041	-4.7861581e-07	0
    CmYaw:	-0.013030055	-0.01415016	0.0011201054	0
    Cs:	0.17741257	0.17745175	-3.9180368e-05	0
    Cs(f):	0.07567623	0.074575715	0.0011005152	0
    Cs(r):	0.10173634	0.10287604	-0.0011396956	0

    writing force and moment coefficient files.

Time = 22

DILUPBiCGStab:  Solving for Ux, Initial residual = 5.2137414e-05, Final residual = 4.8767937e-07, No Iterations 1
DILUPBiCGStab:  Solving for Uy, Initial residual = 0.015243917, Final residual = 0.00046369833, No Iterations 1
DILUPBiCGStab:  Solving for Uz, Initial residual = 3.323099e-05, Final residual = 5.7243055e-07, No Iterations 1
DILUPBiCGStab:  Solving for h, Initial residual = 0.00012903554, Final residual = 1.9358327e-06, No Iterations 1
GAMG:  Solving for p, Initial residual = 0.011898079, Final residual = 7.7035467e-05, No Iterations 13
GAMG:  Solving for p, Initial residual = 0.0010401805, Final residual = 5.1540311e-06, No Iterations 8
GAMG:  Solving for p, Initial residual = 0.00023328635, Final residual = 2.1617903e-06, No Iterations 5
time step continuity errors : sum local = 8.514376e-06, global = 1.1055686e-06, cumulative = 2.4898641e-05
DILUPBiCGStab:  Solving for nuTilda, Initial residual = 2.6014084e-05, Final residual = 4.4442598e-07, No Iterations 1
ExecutionTime = 276.75 s  ClockTime = 277 s

forceCoeffs forceCoeffs write:
    Coefficient	Total	Pressure	Viscous	Internal
    Cd:	0.025634075	0.02152238	0.0041116947	0
    Cd(f):	0.015241905	0.013186558	0.0020553475	0
    Cd(r):	0.010392169	0.0083358222	0.0020563472	0
    Cl:	6.5688233e-05	6.672584e-05	-1.0376068e-06	0
    Cl(f):	-2.3063271e-05	3.7719154e-05	-6.0782425e-05	0
    Cl(r):	8.8751504e-05	2.9006686e-05	5.9744818e-05	0
    CmPitch:	-5.5907388e-05	4.356234e-06	-6.0263622e-05	0
    CmRoll:	0.002424868	0.0024253679	-4.9986484e-07	0
    CmYaw:	-0.01268526	-0.013801681	0.0011164209	0
    Cs:	0.17737421	0.17741578	-4.1575269e-05	0
    Cs(f):	0.076001844	0.07490621	0.0010956332	0
    Cs(r):	0.10137236	0.10250957	-0.0011372085	0

    writing force and moment coefficient files.

Time = 23

DILUPBiCGStab:  Solving for Ux, Initial residual = 7.7200991e-05, Final residual = 5.2286664e-07, No Iterations 1
DILUPBiCGStab:  Solving for Uy, Initial residual = 0.020058475, Final residual = 0.00067351996, No Iterations 1
DILUPBiCGStab:  Solving for Uz, Initial residual = 3.0739448e-05, Final residual = 5.972165e-07, No Iterations 1
DILUPBiCGStab:  Solving for h, Initial residual = 0.0001182553, Final residual = 1.6068333e-06, No Iterations 1
GAMG:  Solving for p, Initial residual = 0.012081138, Final residual = 8.0427095e-05, No Iterations 10
GAMG:  Solving for p, Initial residual = 0.0083611968, Final residual = 5.0208675e-05, No Iterations 8
GAMG:  Solving for p, Initial residual = 0.002180836, Final residual = 2.0859826e-05, No Iterations 7
time step continuity errors : sum local = 8.4797332e-06, global = -8.9441306e-07, cumulative = 2.4004228e-05
DILUPBiCGStab:  Solving for nuTilda, Initial residual = 2.7105076e-05, Final residual = 4.507824e-07, No Iterations 1
ExecutionTime = 289.11 s  ClockTime = 290 s

forceCoeffs forceCoeffs write:
    Coefficient	Total	Pressure	Viscous	Internal
    Cd:	0.024092529	0.020001185	0.0040913435	0
    Cd(f):	0.014598663	0.0125535	0.0020451631	0
    Cd(r):	0.0094938659	0.0074476855	0.0020461803	0
    Cl:	-0.00021716403	-0.00021605636	-1.1076683e-06	0
    Cl(f):	-0.00020322239	-0.00014269962	-6.0522771e-05	0
    Cl(r):	-1.3941631e-05	-7.3356734e-05	5.9415103e-05	0
    CmPitch:	-9.4640382e-05	-3.4671445e-05	-5.9968937e-05	0
    CmRoll:	0.0025523986	0.0025529072	-5.0860546e-07	0
    CmYaw:	-0.01325344	-0.014365871	0.0011124314	0
    Cs:	0.17799508	0.17803852	-4.3449221e-05	0
    Cs(f):	0.075744098	0.074653391	0.0010907067	0
    Cs(r):	0.10225098	0.10338513	-0.001134156	0

    writing force and moment coefficient files.

Time = 24

DILUPBiCGStab:  Solving for Ux, Initial residual = 8.3885654e-05, Final residual = 5.4249627e-07, No Iterations 1
DILUPBiCGStab:  Solving for Uy, Initial residual = 0.016425908, Final residual = 0.00045086588, No Iterations 1
DILUPBiCGStab:  Solving for Uz, Initial residual = 2.6273348e-05, Final residual = 4.9272117e-07, No Iterations 1
DILUPBiCGStab:  Solving for h, Initial residual = 0.00010765514, Final residual = 1.3840544e-06, No Iterations 1
GAMG:  Solving for p, Initial residual = 0.013780877, Final residual = 0.00013529415, No Iterations 9
GAMG:  Solving for p, Initial residual = 0.0019274698, Final residual = 1.6944463e-05, No Iterations 9
GAMG:  Solving for p, Initial residual = 0.00037335797, Final residual = 2.2139278e-06, No Iterations 8
time step continuity errors : sum local = 4.8666579e-06, global = -1.1380297e-06, cumulative = 2.2866198e-05
DILUPBiCGStab:  Solving for nuTilda, Initial residual = 2.8313594e-05, Final residual = 4.5580151e-07, No Iterations 1
ExecutionTime = 301.74 s  ClockTime = 302 s

forceCoeffs forceCoeffs write:
    Coefficient	Total	Pressure	Viscous	Internal
    Cd:	0.021063035	0.016991581	0.0040714537	0
    Cd(f):	0.013255124	0.01121991	0.0020352145	0
    Cd(r):	0.0078079104	0.0057716712	0.0020362392	0
    Cl:	-0.00060443558	-0.00060327436	-1.1612158e-06	0
    Cl(f):	-0.00044516631	-0.00038490084	-6.0265478e-05	0
    Cl(r):	-0.00015926927	-0.00021837353	5.9104262e-05	0
    CmPitch:	-0.00014294852	-8.3263653e-05	-5.968487e-05	0
    CmRoll:	0.0027236068	0.0027241192	-5.1235108e-07	0
    CmYaw:	-0.014280183	-0.015388756	0.0011085729	0
    Cs:	0.17890715	0.17895234	-4.5189136e-05	0
    Cs(f):	0.075173391	0.074087413	0.0010859783	0
    Cs(r):	0.10373376	0.10486492	-0.0011311674	0

    writing force and moment coefficient files.

Time = 25

DILUPBiCGStab:  Solving for Ux, Initial residual = 7.2215586e-05, Final residual = 6.5828227e-06, No Iterations 1
DILUPBiCGStab:  Solving for Uy, Initial residual = 0.012882231, Final residual = 0.0002032434, No Iterations 1
DILUPBiCGStab:  Solving for Uz, Initial residual = 2.3165214e-05, Final residual = 3.4817412e-07, No Iterations 1
DILUPBiCGStab:  Solving for h, Initial residual = 0.00010648548, Final residual = 1.2641485e-06, No Iterations 1
GAMG:  Solving for p, Initial residual = 0.018468156, Final residual = 0.00013900989, No Iterations 13
GAMG:  Solving for p, Initial residual = 0.0012617062, Final residual = 9.2162674e-06, No Iterations 8
GAMG:  Solving for p, Initial residual = 0.00026228567, Final residual = 1.9024647e-06, No Iterations 8
time step continuity errors : sum local = 5.2539144e-06, global = 5.5633298e-07, cumulative = 2.3422531e-05
DILUPBiCGStab:  Solving for nuTilda, Initial residual = 2.9587502e-05, Final residual = 4.5355345e-07, No Iterations 1
ExecutionTime = 314.9 s  ClockTime = 315 s

forceCoeffs forceCoeffs write:
    Coefficient	Total	Pressure	Viscous	Internal
    Cd:	0.018118771	0.014065594	0.0040531768	0
    Cd(f):	0.011931767	0.009905696	0.002026071	0
    Cd(r):	0.0061870037	0.0041598979	0.0020271058	0
    Cl:	-0.00094860561	-0.00094741923	-1.1863743e-06	0
    Cl(f):	-0.00065096846	-0.00059094827	-6.0020188e-05	0
    Cl(r):	-0.00029763715	-0.00035647096	5.8833814e-05	0
    CmPitch:	-0.00017666566	-0.00011723866	-5.9427001e-05	0
    CmRoll:	0.0028723817	0.002872899	-5.1736822e-07	0
    CmYaw:	-0.015254932	-0.016360114	0.0011051826	0
    Cs:	0.17972632	0.17977339	-4.7078263e-05	0
    Cs(f):	0.074608226	0.073526583	0.0010816435	0
    Cs(r):	0.10511809	0.10624681	-0.0011287218	0

    writing force and moment coefficient files.

Time = 26

DILUPBiCGStab:  Solving for Ux, Initial residual = 5.2632507e-05, Final residual = 4.922199e-06, No Iterations 1
DILUPBiCGStab:  Solving for Uy, Initial residual = 0.017137976, Final residual = 0.00029637137, No Iterations 1
DILUPBiCGStab:  Solving for Uz, Initial residual = 2.1649102e-05, Final residual = 2.9224668e-07, No Iterations 1
DILUPBiCGStab:  Solving for h, Initial residual = 9.8077e-05, Final residual = 1.2200611e-06, No Iterations 1
GAMG:  Solving for p, Initial residual = 0.030846558, Final residual = 0.00022519026, No Iterations 14
GAMG:  Solving for p, Initial residual = 0.0015976956, Final residual = 8.2589144e-06, No Iterations 8
GAMG:  Solving for p, Initial residual = 0.00036412982, Final residual = 2.1302737e-06, No Iterations 8
time step continuity errors : sum local = 3.934097e-06, global = 4.2157645e-07, cumulative = 2.3844108e-05
DILUPBiCGStab:  Solving for nuTilda, Initial residual = 3.0939986e-05, Final residual = 4.50565e-07, No Iterations 1
ExecutionTime = 328.29 s  ClockTime = 329 s

forceCoeffs forceCoeffs write:
    Coefficient	Total	Pressure	Viscous	Internal
    Cd:	0.016333367	0.012297353	0.0040360134	0
    Cd(f):	0.011124645	0.0091071683	0.0020174771	0
    Cd(r):	0.0052087215	0.0031901851	0.0020185364	0
    Cl:	-0.0011541133	-0.0011529345	-1.1787742e-06	0
    Cl(f):	-0.00076641565	-0.00070663961	-5.9776036e-05	0
    Cl(r):	-0.00038769766	-0.00044629492	5.8597262e-05	0
    CmPitch:	-0.00018935899	-0.00013017234	-5.9186649e-05	0
    CmRoll:	0.002957962	0.0029584916	-5.2964421e-07	0
    CmYaw:	-0.015835645	-0.016937768	0.0011021228	0
    Cs:	0.18020217	0.18025142	-4.9250058e-05	0
    Cs(f):	0.074265437	0.07318794	0.0010774978	0
    Cs(r):	0.10593673	0.10706348	-0.0011267479	0

    writing force and moment coefficient files.

Time = 27

DILUPBiCGStab:  Solving for Ux, Initial residual = 3.7991129e-05, Final residual = 2.4432802e-07, No Iterations 1
DILUPBiCGStab:  Solving for Uy, Initial residual = 0.015132435, Final residual = 0.00032421034, No Iterations 1
DILUPBiCGStab:  Solving for Uz, Initial residual = 2.093526e-05, Final residual = 2.8203022e-07, No Iterations 1
DILUPBiCGStab:  Solving for h, Initial residual = 9.6617944e-05, Final residual = 1.2209772e-06, No Iterations 1
GAMG:  Solving for p, Initial residual = 0.071423695, Final residual = 0.00052625125, No Iterations 14
GAMG:  Solving for p, Initial residual = 0.017189245, Final residual = 8.9751665e-05, No Iterations 8
GAMG:  Solving for p, Initial residual = 0.0041094601, Final residual = 4.078173e-05, No Iterations 7
time step continuity errors : sum local = 6.5068069e-06, global = -9.1917417e-07, cumulative = 2.2924934e-05
DILUPBiCGStab:  Solving for nuTilda, Initial residual = 3.2457035e-05, Final residual = 4.4607879e-07, No Iterations 1
ExecutionTime = 341.47 s  ClockTime = 342 s

forceCoeffs forceCoeffs write:
    Coefficient	Total	Pressure	Viscous	Internal
    Cd:	0.016053132	0.012033834	0.004019298	0
    Cd(f):	0.010996666	0.008987565	0.0020091011	0
    Cd(r):	0.0050564661	0.0030462693	0.0020101969	0
    Cl:	-0.001199345	-0.0011981972	-1.1477877e-06	0
    Cl(f):	-0.00078635951	-0.00072683611	-5.9523396e-05	0
    Cl(r):	-0.00041298551	-0.00047136112	5.8375608e-05	0
    CmPitch:	-0.000186687	-0.0001277375	-5.8949502e-05	0
    CmRoll:	0.0029701	0.0029706478	-5.4786163e-07	0
    CmYaw:	-0.015916921	-0.017016121	0.0010992	0
    Cs:	0.18026175	0.18031344	-5.1688161e-05	0
    Cs(f):	0.074213954	0.073140598	0.001073356	0
    Cs(r):	0.10604779	0.10717284	-0.0011250441	0

    writing force and moment coefficient files.

Time = 28

DILUPBiCGStab:  Solving for Ux, Initial residual = 4.9661003e-05, Final residual = 3.1167886e-07, No Iterations 1
DILUPBiCGStab:  Solving for Uy, Initial residual = 0.0075491956, Final residual = 0.00018357889, No Iterations 1
DILUPBiCGStab:  Solving for Uz, Initial residual = 1.8759057e-05, Final residual = 2.6339164e-07, No Iterations 1
DILUPBiCGStab:  Solving for h, Initial residual = 9.0177024e-05, Final residual = 1.1143061e-06, No Iterations 1
GAMG:  Solving for p, Initial residual = 0.087302948, Final residual = 0.0006973503, No Iterations 11
GAMG:  Solving for p, Initial residual = 0.001615991, Final residual = 1.2971858e-05, No Iterations 9
GAMG:  Solving for p, Initial residual = 0.00036088977, Final residual = 1.8443281e-06, No Iterations 8
time step continuity errors : sum local = 3.2779643e-06, global = -8.6321554e-07, cumulative = 2.2061718e-05
DILUPBiCGStab:  Solving for nuTilda, Initial residual = 3.4138745e-05, Final residual = 4.4101888e-07, No Iterations 1
ExecutionTime = 354.73 s  ClockTime = 355 s

forceCoeffs forceCoeffs write:
    Coefficient	Total	Pressure	Viscous	Internal
    Cd:	0.016979151	0.012976017	0.0040031343	0
    Cd(f):	0.011409776	0.0094087838	0.0020009922	0
    Cd(r):	0.0055693752	0.0035672331	0.0020021421	0
    Cl:	-0.0011085799	-0.0011074822	-1.0976811e-06	0
    Cl(f):	-0.00072844564	-0.00066917901	-5.9266633e-05	0
    Cl(r):	-0.00038013427	-0.00043830323	5.8168952e-05	0
    CmPitch:	-0.00017415568	-0.00011543789	-5.8717792e-05	0
    CmRoll:	0.0029202004	0.0029207754	-5.7498116e-07	0
    CmYaw:	-0.015600476	-0.016696841	0.0010963652	0
    Cs:	0.17998743	0.18004172	-5.4285047e-05	0
    Cs(f):	0.074393239	0.073324017	0.0010692227	0
    Cs(r):	0.10559419	0.1067177	-0.0011235077	0

    writing force and moment coefficient files.

Time = 29

DILUPBiCGStab:  Solving for Ux, Initial residual = 6.242385e-05, Final residual = 3.0579122e-07, No Iterations 1
DILUPBiCGStab:  Solving for Uy, Initial residual = 0.0041205534, Final residual = 9.4713261e-05, No Iterations 1
DILUPBiCGStab:  Solving for Uz, Initial residual = 1.5491085e-05, Final residual = 2.2999079e-07, No Iterations 1
DILUPBiCGStab:  Solving for h, Initial residual = 8.5192652e-05, Final residual = 1.0310248e-06, No Iterations 1
GAMG:  Solving for p, Initial residual = 0.040595337, Final residual = 0.00034901274, No Iterations 9
GAMG:  Solving for p, Initial residual = 0.00094158646, Final residual = 4.8836415e-06, No Iterations 9
GAMG:  Solving for p, Initial residual = 0.00020645206, Final residual = 1.3485585e-06, No Iterations 8
time step continuity errors : sum local = 3.8472115e-06, global = -1.5800849e-07, cumulative = 2.190371e-05
DILUPBiCGStab:  Solving for nuTilda, Initial residual = 3.6023042e-05, Final residual = 4.3681859e-07, No Iterations 1
ExecutionTime = 367.62 s  ClockTime = 368 s

forceCoeffs forceCoeffs write:
    Coefficient	Total	Pressure	Viscous	Internal
    Cd:	0.0184322	0.014445054	0.0039871461	0
    Cd(f):	0.012049089	0.010056122	0.0019929664	0
    Cd(r):	0.0063831112	0.0043889316	0.0019941797	0
    Cl:	-0.00092917744	-0.00092813351	-1.0439359e-06	0
    Cl(f):	-0.0006221441	-0.00056313866	-5.9005432e-05	0
    Cl(r):	-0.00030703335	-0.00036499484	5.7961496e-05	0
    CmPitch:	-0.00015755537	-9.907191e-05	-5.8483464e-05	0
    CmRoll:	0.0028329888	0.0028335954	-6.0661105e-07	0
    CmYaw:	-0.015109961	-0.016203424	0.0010934628	0
    Cs:	0.17955535	0.17961225	-5.6900802e-05	0
    Cs(f):	0.074667712	0.0736027	0.0010650124	0
    Cs(r):	0.10488764	0.10600955	-0.0011219132	0

    writing force and moment coefficient files.

Time = 30

DILUPBiCGStab:  Solving for Ux, Initial residual = 5.9541989e-05, Final residual = 5.1125243e-06, No Iterations 1
DILUPBiCGStab:  Solving for Uy, Initial residual = 0.0031350483, Final residual = 5.0113329e-05, No Iterations 1
DILUPBiCGStab:  Solving for Uz, Initial residual = 1.4644354e-05, Final residual = 2.2196536e-07, No Iterations 1
DILUPBiCGStab:  Solving for h, Initial residual = 8.8082061e-05, Final residual = 9.814616e-07, No Iterations 1
GAMG:  Solving for p, Initial residual = 0.020572273, Final residual = 0.00013808243, No Iterations 13
GAMG:  Solving for p, Initial residual = 0.00072201466, Final residual = 5.3503284e-06, No Iterations 8
GAMG:  Solving for p, Initial residual = 0.00016456446, Final residual = 9.1165936e-07, No Iterations 8
time step continuity errors : sum local = 2.843848e-06, global = -2.9607225e-07, cumulative = 2.1607637e-05
DILUPBiCGStab:  Solving for nuTilda, Initial residual = 3.8090981e-05, Final residual = 4.352313e-07, No Iterations 1
ExecutionTime = 380.8 s  ClockTime = 381 s

forceCoeffs forceCoeffs write:
    Coefficient	Total	Pressure	Viscous	Internal
    Cd:	0.019717728	0.015746162	0.0039715664	0
    Cd(f):	0.012602546	0.010617403	0.0019851431	0
    Cd(r):	0.0071151822	0.0051287588	0.0019864233	0
    Cl:	-0.00073585476	-0.00073486334	-9.9141771e-07	0
    Cl(f):	-0.00050944307	-0.00045069292	-5.875015e-05	0
    Cl(r):	-0.00022641169	-0.00028417042	5.7758732e-05	0
    CmPitch:	-0.00014151569	-8.3261247e-05	-5.8254441e-05	0
    CmRoll:	0.002743682	0.0027443221	-6.4013004e-07	0
    CmYaw:	-0.014674519	-0.015765026	0.0010905067	0
    Cs:	0.17914903	0.17920845	-5.9423228e-05	0
    Cs(f):	0.074899995	0.0738392	0.0010607951	0
    Cs(r):	0.10424903	0.10536925	-0.0011202183	0

    writing force and moment coefficient files.

Time = 31

DILUPBiCGStab:  Solving for Ux, Initial residual = 4.5715847e-05, Final residual = 3.834375e-06, No Iterations 1
DILUPBiCGStab:  Solving for Uy, Initial residual = 0.0031909044, Final residual = 4.5926994e-05, No Iterations 1
DILUPBiCGStab:  Solving for Uz, Initial residual = 1.6108224e-05, Final residual = 2.3523091e-07, No Iterations 1
DILUPBiCGStab:  Solving for h, Initial residual = 8.4238035e-05, Final residual = 9.4966429e-07, No Iterations 1
GAMG:  Solving for p, Initial residual = 0.012600658, Final residual = 0.00010403184, No Iterations 14
GAMG:  Solving for p, Initial residual = 0.00073162046, Final residual = 3.5506415e-06, No Iterations 9
GAMG:  Solving for p, Initial residual = 0.00016959043, Final residual = 1.6573127e-06, No Iterations 7
time step continuity errors : sum local = 4.477404e-06, global = 5.4733509e-07, cumulative = 2.2154972e-05
DILUPBiCGStab:  Solving for nuTilda, Initial residual = 4.0346783e-05, Final residual = 4.399904e-07, No Iterations 1
ExecutionTime = 394.11 s  ClockTime = 395 s

forceCoeffs forceCoeffs write:
    Coefficient	Total	Pressure	Viscous	Internal
    Cd:	0.020387453	0.016431612	0.0039558403	0
    Cd(f):	0.012875356	0.010898115	0.0019772408	0
    Cd(r):	0.0075120967	0.0055334972	0.0019785995	0
    Cl:	-0.00060022203	-0.00059928549	-9.3653899e-07	0
    Cl(f):	-0.00042560735	-0.00036710981	-5.8497537e-05	0
    Cl(r):	-0.00017461468	-0.00023217568	5.7560998e-05	0
    CmPitch:	-0.00012549633	-6.7467065e-05	-5.8029267e-05	0
    CmRoll:	0.0026816296	0.002682309	-6.7935593e-07	0
    CmYaw:	-0.014442371	-0.015529746	0.0010873745	0
    Cs:	0.17889631	0.1789581	-6.179365e-05	0
    Cs(f):	0.075005783	0.073949306	0.0010564777	0
    Cs(r):	0.10389053	0.1050088	-0.0011182713	0

    writing force and moment coefficient files.

Time = 32

DILUPBiCGStab:  Solving for Ux, Initial residual = 3.0164702e-05, Final residual = 1.3184202e-07, No Iterations 1
DILUPBiCGStab:  Solving for Uy, Initial residual = 0.0032639131, Final residual = 5.2250396e-05, No Iterations 1
DILUPBiCGStab:  Solving for Uz, Initial residual = 1.7386503e-05, Final residual = 2.3796376e-07, No Iterations 1
DILUPBiCGStab:  Solving for h, Initial residual = 8.4445897e-05, Final residual = 9.6264831e-07, No Iterations 1
GAMG:  Solving for p, Initial residual = 0.010100088, Final residual = 9.8260095e-05, No Iterations 14
GAMG:  Solving for p, Initial residual = 0.00097954532, Final residual = 6.7943944e-06, No Iterations 9
GAMG:  Solving for p, Initial residual = 0.00022606079, Final residual = 1.0124532e-06, No Iterations 8
time step continuity errors : sum local = 1.9453464e-06, global = 3.97345e-07, cumulative = 2.2552317e-05
DILUPBiCGStab:  Solving for nuTilda, Initial residual = 4.2914128e-05, Final residual = 4.531041e-07, No Iterations 1
ExecutionTime = 407.7 s  ClockTime = 408 s

forceCoeffs forceCoeffs write:
    Coefficient	Total	Pressure	Viscous	Internal
    Cd:	0.02033818	0.016398639	0.0039395417	0
    Cd(f):	0.012834328	0.010865276	0.0019690522	0
    Cd(r):	0.0075038523	0.0055333628	0.0019704895	0
    Cl:	-0.00056526093	-0.00056437709	-8.8384046e-07	0
    Cl(f):	-0.00039242907	-0.00033418315	-5.8245918e-05	0
    Cl(r):	-0.00017283186	-0.00023019393	5.7362077e-05	0
    CmPitch:	-0.00010979861	-5.1994609e-05	-5.7803997e-05	0
    CmRoll:	0.0026652379	0.0026659565	-7.1860686e-07	0
    CmYaw:	-0.01444935	-0.015533336	0.0010839856	0
    Cs:	0.17884354	0.17890756	-6.4024428e-05	0
    Cs(f):	0.074972419	0.073920446	0.0010519734	0
    Cs(r):	0.10387112	0.10498712	-0.0011159978	0

    writing force and moment coefficient files.

Time = 33

DILUPBiCGStab:  Solving for Ux, Initial residual = 2.7086401e-05, Final residual = 2.1456763e-07, No Iterations 1
DILUPBiCGStab:  Solving for Uy, Initial residual = 0.0030568541, Final residual = 5.1229163e-05, No Iterations 1
DILUPBiCGStab:  Solving for Uz, Initial residual = 1.7500453e-05, Final residual = 2.2494281e-07, No Iterations 1
DILUPBiCGStab:  Solving for h, Initial residual = 8.1054643e-05, Final residual = 9.127169e-07, No Iterations 1
GAMG:  Solving for p, Initial residual = 0.0099537733, Final residual = 7.1231104e-05, No Iterations 12
GAMG:  Solving for p, Initial residual = 0.001483966, Final residual = 1.0212111e-05, No Iterations 9
GAMG:  Solving for p, Initial residual = 0.00035836111, Final residual = 1.670422e-06, No Iterations 8
time step continuity errors : sum local = 1.9631417e-06, global = 4.4679432e-07, cumulative = 2.2999112e-05
DILUPBiCGStab:  Solving for nuTilda, Initial residual = 4.5834289e-05, Final residual = 4.7572169e-07, No Iterations 1
ExecutionTime = 420.91 s  ClockTime = 421 s

forceCoeffs forceCoeffs write:
    Coefficient	Total	Pressure	Viscous	Internal
    Cd:	0.01978275	0.015859338	0.0039234119	0
    Cd(f):	0.012581636	0.010620683	0.0019609536	0
    Cd(r):	0.0072011137	0.0052386554	0.0019624583	0
    Cl:	-0.00062282485	-0.00062198313	-8.4172352e-07	0
    Cl(f):	-0.00040719835	-0.00034919184	-5.8006509e-05	0
    Cl(r):	-0.0002156265	-0.00027279129	5.7164786e-05	0
    CmPitch:	-9.5785924e-05	-3.8200276e-05	-5.7585647e-05	0
    CmRoll:	0.0026902614	0.0026910137	-7.523183e-07	0
    CmYaw:	-0.014628108	-0.015708678	0.0010805696	0
    Cs:	0.17895445	0.17902063	-6.6182486e-05	0
    Cs(f):	0.074849115	0.073801637	0.0010474783	0
    Cs(r):	0.10410533	0.10521899	-0.0011136608	0

    writing force and moment coefficient files.

Time = 34

DILUPBiCGStab:  Solving for Ux, Initial residual = 4.0854837e-05, Final residual = 1.9538589e-07, No Iterations 1
DILUPBiCGStab:  Solving for Uy, Initial residual = 0.0027845353, Final residual = 4.4602968e-05, No Iterations 1
DILUPBiCGStab:  Solving for Uz, Initial residual = 1.6963806e-05, Final residual = 2.1402983e-07, No Iterations 1
DILUPBiCGStab:  Solving for h, Initial residual = 7.8084914e-05, Final residual = 8.8719958e-07, No Iterations 1
GAMG:  Solving for p, Initial residual = 0.0099449562, Final residual = 5.3493565e-05, No Iterations 9
GAMG:  Solving for p, Initial residual = 0.0021547822, Final residual = 8.7734299e-06, No Iterations 8
GAMG:  Solving for p, Initial residual = 0.00053422996, Final residual = 5.0907062e-06, No Iterations 7
time step continuity errors : sum local = 3.5519798e-06, global = 2.2017639e-07, cumulative = 2.3219288e-05
DILUPBiCGStab:  Solving for nuTilda, Initial residual = 4.9190531e-05, Final residual = 5.0555789e-07, No Iterations 1
ExecutionTime = 433.15 s  ClockTime = 434 s

forceCoeffs forceCoeffs write:
    Coefficient	Total	Pressure	Viscous	Internal
    Cd:	0.019060094	0.015152424	0.0039076701	0
    Cd(f):	0.012272518	0.010319461	0.0019530563	0
    Cd(r):	0.0067875765	0.0048329628	0.0019546138	0
    Cl:	-0.00074960031	-0.00074878559	-8.1472461e-07	0
    Cl(f):	-0.00045993355	-0.00040215261	-5.778094e-05	0
    Cl(r):	-0.00028966676	-0.00034663298	5.6966215e-05	0
    CmPitch:	-8.5133393e-05	-2.7759815e-05	-5.7373577e-05	0
    CmRoll:	0.0027424705	0.0027432492	-7.7871637e-07	0
    CmYaw:	-0.01486899	-0.015946192	0.0010772019	0
    Cs:	0.17915225	0.17922059	-6.833125e-05	0
    Cs(f):	0.074707137	0.073664101	0.0010430362	0
    Cs(r):	0.10444512	0.10555648	-0.0011113675	0

    writing force and moment coefficient files.

Time = 35

DILUPBiCGStab:  Solving for Ux, Initial residual = 4.3884945e-05, Final residual = 3.9406979e-06, No Iterations 1
DILUPBiCGStab:  Solving for Uy, Initial residual = 0.0025854521, Final residual = 3.9815969e-05, No Iterations 1
DILUPBiCGStab:  Solving for Uz, Initial residual = 1.6111367e-05, Final residual = 2.0616422e-07, No Iterations 1
DILUPBiCGStab:  Solving for h, Initial residual = 7.7257305e-05, Final residual = 8.5779819e-07, No Iterations 1
GAMG:  Solving for p, Initial residual = 0.010281772, Final residual = 9.6646766e-05, No Iterations 11
GAMG:  Solving for p, Initial residual = 0.0022751263, Final residual = 1.887625e-05, No Iterations 9
GAMG:  Solving for p, Initial residual = 0.00055235569, Final residual = 2.6771054e-06, No Iterations 8
time step continuity errors : sum local = 1.5587853e-06, global = -4.0061046e-07, cumulative = 2.2818678e-05
DILUPBiCGStab:  Solving for nuTilda, Initial residual = 5.3083071e-05, Final residual = 5.4334586e-07, No Iterations 1
ExecutionTime = 446.07 s  ClockTime = 447 s

forceCoeffs forceCoeffs write:
    Coefficient	Total	Pressure	Viscous	Internal
    Cd:	0.018491219	0.014598364	0.003892855	0
    Cd(f):	0.012045878	0.010100238	0.0019456394	0
    Cd(r):	0.0064453412	0.0044981256	0.0019472156	0
    Cl:	-0.00089880468	-0.00089798511	-8.1956712e-07	0
    Cl(f):	-0.00052753279	-0.0004699568	-5.7575994e-05	0
    Cl(r):	-0.00037127189	-0.00042802831	5.6756427e-05	0
    CmPitch:	-7.8130454e-05	-2.0964243e-05	-5.716621e-05	0
    CmRoll:	0.0028002683	0.0028010564	-7.8809309e-07	0
    CmYaw:	-0.015065797	-0.016139823	0.001074026	0
    Cs:	0.179351	0.17942152	-7.0520422e-05	0
    Cs(f):	0.074609703	0.073570937	0.0010387658	0
    Cs(r):	0.1047413	0.10585058	-0.0011092862	0

    writing force and moment coefficient files.

Time = 36

DILUPBiCGStab:  Solving for Ux, Initial residual = 3.7009401e-05, Final residual = 2.9901176e-06, No Iterations 1
DILUPBiCGStab:  Solving for Uy, Initial residual = 0.0023519383, Final residual = 3.7548565e-05, No Iterations 1
DILUPBiCGStab:  Solving for Uz, Initial residual = 1.5046343e-05, Final residual = 1.9138126e-07, No Iterations 1
DILUPBiCGStab:  Solving for h, Initial residual = 7.2743446e-05, Final residual = 8.4731392e-07, No Iterations 1
GAMG:  Solving for p, Initial residual = 0.01032555, Final residual = 9.6648234e-05, No Iterations 14
GAMG:  Solving for p, Initial residual = 0.0016563021, Final residual = 1.3195809e-05, No Iterations 9
GAMG:  Solving for p, Initial residual = 0.0003998772, Final residual = 1.8690096e-06, No Iterations 8
time step continuity errors : sum local = 1.4202811e-06, global = -3.6036401e-07, cumulative = 2.2458314e-05
DILUPBiCGStab:  Solving for nuTilda, Initial residual = 5.7666202e-05, Final residual = 5.8745978e-07, No Iterations 1
ExecutionTime = 459.53 s  ClockTime = 460 s

forceCoeffs forceCoeffs write:
    Coefficient	Total	Pressure	Viscous	Internal
    Cd:	0.018245075	0.01436663	0.0038784445	0
    Cd(f):	0.011968722	0.010030282	0.0019384397	0
    Cd(r):	0.0062763526	0.0043363478	0.0019400048	0
    Cl:	-0.0010277227	-0.0010268664	-8.5634837e-07	0
    Cl(f):	-0.00058990155	-0.00053252054	-5.7381003e-05	0
    Cl(r):	-0.00043782119	-0.00049434584	5.6524654e-05	0
    CmPitch:	-7.604018e-05	-1.9087352e-05	-5.6952829e-05	0
    CmRoll:	0.0028461847	0.0028469672	-7.8252793e-07	0
    CmYaw:	-0.015160389	-0.016231291	0.0010709018	0
    Cs:	0.17948986	0.1795626	-7.2743336e-05	0
    Cs(f):	0.074584541	0.073550011	0.0010345302	0
    Cs(r):	0.10490532	0.10601259	-0.0011072735	0

    writing force and moment coefficient files.

Time = 37

DILUPBiCGStab:  Solving for Ux, Initial residual = 2.6255739e-05, Final residual = 2.3962825e-06, No Iterations 1
DILUPBiCGStab:  Solving for Uy, Initial residual = 0.0020033756, Final residual = 3.2229033e-05, No Iterations 1
DILUPBiCGStab:  Solving for Uz, Initial residual = 1.3879281e-05, Final residual = 1.6784818e-07, No Iterations 1
DILUPBiCGStab:  Solving for h, Initial residual = 7.2120701e-05, Final residual = 8.3906669e-07, No Iterations 1
GAMG:  Solving for p, Initial residual = 0.010608092, Final residual = 8.8978452e-05, No Iterations 14
GAMG:  Solving for p, Initial residual = 0.001190129, Final residual = 5.9965978e-06, No Iterations 9
GAMG:  Solving for p, Initial residual = 0.00028832478, Final residual = 1.6912772e-06, No Iterations 8
time step continuity errors : sum local = 1.8398597e-06, global = 1.8124912e-07, cumulative = 2.2639563e-05
DILUPBiCGStab:  Solving for nuTilda, Initial residual = 6.3196948e-05, Final residual = 6.3985565e-07, No Iterations 1
ExecutionTime = 473.01 s  ClockTime = 473 s

forceCoeffs forceCoeffs write:
    Coefficient	Total	Pressure	Viscous	Internal
    Cd:	0.018323465	0.014459264	0.0038642015	0
    Cd(f):	0.012033286	0.010101954	0.0019313319	0
    Cd(r):	0.006290179	0.0043573094	0.0019328696	0
    Cl:	-0.0011043636	-0.001103449	-9.1463343e-07	0
    Cl(f):	-0.00062949393	-0.00057230419	-5.718974e-05	0
    Cl(r):	-0.00047486969	-0.0005311448	5.6275106e-05	0
    CmPitch:	-7.7312118e-05	-2.0579695e-05	-5.6732423e-05	0
    CmRoll:	0.0028715535	0.0028723223	-7.6882384e-07	0
    CmYaw:	-0.01514782	-0.016215583	0.001067763	0
    Cs:	0.17954355	0.17961853	-7.4978893e-05	0
    Cs(f):	0.074623955	0.073593682	0.0010302736	0
    Cs(r):	0.1049196	0.10602485	-0.0011052525	0

    writing force and moment coefficient files.

Time = 38

DILUPBiCGStab:  Solving for Ux, Initial residual = 2.0088935e-05, Final residual = 1.3018546e-07, No Iterations 1
DILUPBiCGStab:  Solving for Uy, Initial residual = 0.0016155094, Final residual = 2.3630884e-05, No Iterations 1
DILUPBiCGStab:  Solving for Uz, Initial residual = 1.2599124e-05, Final residual = 1.4223203e-07, No Iterations 1
DILUPBiCGStab:  Solving for h, Initial residual = 7.0595165e-05, Final residual = 8.22972e-07, No Iterations 1
GAMG:  Solving for p, Initial residual = 0.010395408, Final residual = 0.00010022161, No Iterations 12
GAMG:  Solving for p, Initial residual = 0.00091035871, Final residual = 7.9823975e-06, No Iterations 9
GAMG:  Solving for p, Initial residual = 0.00021821289, Final residual = 1.0992979e-06, No Iterations 8
time step continuity errors : sum local = 1.5701577e-06, global = -3.8741734e-07, cumulative = 2.2252145e-05
DILUPBiCGStab:  Solving for nuTilda, Initial residual = 7.0058845e-05, Final residual = 7.0485086e-07, No Iterations 1
ExecutionTime = 486.18 s  ClockTime = 487 s

forceCoeffs forceCoeffs write:
    Coefficient	Total	Pressure	Viscous	Internal
    Cd:	0.018606059	0.014756329	0.0038497301	0
    Cd(f):	0.012177541	0.010253437	0.0019241039	0
    Cd(r):	0.0064285183	0.004502892	0.0019256262	0
    Cl:	-0.0011211901	-0.0011202249	-9.6522672e-07	0
    Cl(f):	-0.00064038765	-0.00058339311	-5.6994541e-05	0
    Cl(r):	-0.00048080244	-0.00053683175	5.6029314e-05	0
    CmPitch:	-7.9792608e-05	-2.328068e-05	-5.6511927e-05	0
    CmRoll:	0.0028745112	0.0028752724	-7.6117729e-07	0
    CmYaw:	-0.015063275	-0.016127782	0.0010645071	0
    Cs:	0.17951949	0.17959671	-7.7211682e-05	0
    Cs(f):	0.074696472	0.073670571	0.0010259013	0
    Cs(r):	0.10482302	0.10592614	-0.001103113	0

    writing force and moment coefficient files.

Time = 39

DILUPBiCGStab:  Solving for Ux, Initial residual = 2.8372945e-05, Final residual = 1.3875256e-07, No Iterations 1
DILUPBiCGStab:  Solving for Uy, Initial residual = 0.0013840425, Final residual = 1.7604919e-05, No Iterations 1
DILUPBiCGStab:  Solving for Uz, Initial residual = 1.1911358e-05, Final residual = 1.3046775e-07, No Iterations 1
DILUPBiCGStab:  Solving for h, Initial residual = 6.8300365e-05, Final residual = 7.7645283e-07, No Iterations 1
GAMG:  Solving for p, Initial residual = 0.0091102229, Final residual = 7.5357767e-05, No Iterations 9
GAMG:  Solving for p, Initial residual = 0.00069995845, Final residual = 6.1970574e-06, No Iterations 9
GAMG:  Solving for p, Initial residual = 0.00017289936, Final residual = 9.2438023e-07, No Iterations 8
time step continuity errors : sum local = 1.5443235e-06, global = -3.7050513e-07, cumulative = 2.188164e-05
DILUPBiCGStab:  Solving for nuTilda, Initial residual = 7.8721422e-05, Final residual = 7.8690638e-07, No Iterations 1
ExecutionTime = 498.73 s  ClockTime = 499 s

forceCoeffs forceCoeffs write:
    Coefficient	Total	Pressure	Viscous	Internal
    Cd:	0.018928873	0.015093432	0.003835441	0
    Cd(f):	0.012326814	0.010409855	0.0019169586	0
    Cd(r):	0.0066020591	0.0046835767	0.0019184824	0
    Cl:	-0.0010975791	-0.001096576	-1.0030458e-06	0
    Cl(f):	-0.00063013681	-0.00057333617	-5.680064e-05	0
    Cl(r):	-0.00046744228	-0.00052323987	5.5797594e-05	0
    CmPitch:	-8.134727e-05	-2.5048152e-05	-5.6299117e-05	0
    CmRoll:	0.0028623772	0.0028631391	-7.61905e-07	0
    CmYaw:	-0.014958736	-0.016019969	0.0010612332	0
    Cs:	0.17944697	0.1795264	-7.9430715e-05	0
    Cs(f):	0.074764747	0.073743229	0.0010215178	0
    Cs(r):	0.10468222	0.10578317	-0.0011009485	0

    writing force and moment coefficient files.

Time = 40

DILUPBiCGStab:  Solving for Ux, Initial residual = 3.1824758e-05, Final residual = 2.9525038e-06, No Iterations 1
DILUPBiCGStab:  Solving for Uy, Initial residual = 0.0013515863, Final residual = 1.7381796e-05, No Iterations 1
DILUPBiCGStab:  Solving for Uz, Initial residual = 1.2196515e-05, Final residual = 1.3561549e-07, No Iterations 1
DILUPBiCGStab:  Solving for h, Initial residual = 6.9612232e-05, Final residual = 7.5269588e-07, No Iterations 1
GAMG:  Solving for p, Initial residual = 0.0078149017, Final residual = 5.5074668e-05, No Iterations 12
GAMG:  Solving for p, Initial residual = 0.00058163157, Final residual = 4.8773321e-06, No Iterations 8
GAMG:  Solving for p, Initial residual = 0.00014361466, Final residual = 8.2782385e-07, No Iterations 8
time step continuity errors : sum local = 1.4732533e-06, global = -1.3511975e-07, cumulative = 2.174652e-05
DILUPBiCGStab:  Solving for nuTilda, Initial residual = 8.9978074e-05, Final residual = 8.9383736e-07, No Iterations 1
ExecutionTime = 511.67 s  ClockTime = 512 s

forceCoeffs forceCoeffs write:
    Coefficient	Total	Pressure	Viscous	Internal
    Cd:	0.019160558	0.0153388	0.0038217576	0
    Cd(f):	0.012418711	0.010508607	0.0019101039	0
    Cd(r):	0.0067418465	0.0048301928	0.0019116537	0
    Cl:	-0.0010455695	-0.0010445501	-1.0194066e-06	0
    Cl(f):	-0.00060297634	-0.00054636281	-5.6613527e-05	0
    Cl(r):	-0.00044259319	-0.00049818731	5.559412e-05	0
    CmPitch:	-8.0191577e-05	-2.4087753e-05	-5.6103824e-05	0
    CmRoll:	0.0028384323	0.0028392071	-7.7486584e-07	0
    CmYaw:	-0.014878094	-0.015936143	0.0010580494	0
    Cs:	0.17935978	0.17944141	-8.163155e-05	0
    Cs(f):	0.074801794	0.073784561	0.0010172336	0
    Cs(r):	0.10455798	0.10565685	-0.0010988652	0

    writing force and moment coefficient files.

Time = 41

DILUPBiCGStab:  Solving for Ux, Initial residual = 2.7910403e-05, Final residual = 2.2997418e-06, No Iterations 1
DILUPBiCGStab:  Solving for Uy, Initial residual = 0.0014054814, Final residual = 1.963691e-05, No Iterations 1
DILUPBiCGStab:  Solving for Uz, Initial residual = 1.300287e-05, Final residual = 1.4532273e-07, No Iterations 1
DILUPBiCGStab:  Solving for h, Initial residual = 6.7463445e-05, Final residual = 7.2503317e-07, No Iterations 1
GAMG:  Solving for p, Initial residual = 0.0066109048, Final residual = 6.0398547e-05, No Iterations 14
GAMG:  Solving for p, Initial residual = 0.00056709779, Final residual = 3.2728425e-06, No Iterations 9
GAMG:  Solving for p, Initial residual = 0.00013482417, Final residual = 8.0181508e-07, No Iterations 8
time step continuity errors : sum local = 1.4199833e-06, global = -1.2881036e-07, cumulative = 2.161771e-05
DILUPBiCGStab:  Solving for nuTilda, Initial residual = 0.000105189, Final residual = 1.036922e-06, No Iterations 1
ExecutionTime = 525.17 s  ClockTime = 526 s

forceCoeffs forceCoeffs write:
    Coefficient	Total	Pressure	Viscous	Internal
    Cd:	0.019237701	0.015429312	0.0038083885	0
    Cd(f):	0.01243408	0.010530682	0.0019033973	0
    Cd(r):	0.0068036211	0.0048986299	0.0019049912	0
    Cl:	-0.0010018871	-0.0010008694	-1.0176489e-06	0
    Cl(f):	-0.00057381671	-0.00051738771	-5.6428997e-05	0
    Cl(r):	-0.00042807037	-0.00048348172	5.5411348e-05	0
    CmPitch:	-7.2873168e-05	-1.6952996e-05	-5.5920173e-05	0
    CmRoll:	0.0028152292	0.0028160261	-7.969212e-07	0
    CmYaw:	-0.014844641	-0.015899531	0.0010548898	0
    Cs:	0.17928696	0.17937078	-8.3817768e-05	0
    Cs(f):	0.074798841	0.07378586	0.0010129809	0
    Cs(r):	0.10448812	0.10558492	-0.0010967986	0

    writing force and moment coefficient files.

Time = 42

DILUPBiCGStab:  Solving for Ux, Initial residual = 2.0201567e-05, Final residual = 1.7366698e-06, No Iterations 1
DILUPBiCGStab:  Solving for Uy, Initial residual = 0.0014079995, Final residual = 1.9815156e-05, No Iterations 1
DILUPBiCGStab:  Solving for Uz, Initial residual = 1.3518e-05, Final residual = 1.4493422e-07, No Iterations 1
DILUPBiCGStab:  Solving for h, Initial residual = 6.8746431e-05, Final residual = 7.0561851e-07, No Iterations 1
GAMG:  Solving for p, Initial residual = 0.0058695242, Final residual = 5.1742632e-05, No Iterations 14
GAMG:  Solving for p, Initial residual = 0.00056735927, Final residual = 3.165286e-06, No Iterations 9
GAMG:  Solving for p, Initial residual = 0.00013512534, Final residual = 8.0328765e-07, No Iterations 8
time step continuity errors : sum local = 1.3600825e-06, global = -1.3772491e-07, cumulative = 2.1479985e-05
DILUPBiCGStab:  Solving for nuTilda, Initial residual = 0.00012689592, Final residual = 1.2387284e-06, No Iterations 1
ExecutionTime = 538.72 s  ClockTime = 539 s

forceCoeffs forceCoeffs write:
    Coefficient	Total	Pressure	Viscous	Internal
    Cd:	0.019174585	0.015379249	0.0037953368	0
    Cd(f):	0.012390679	0.010493838	0.0018968418	0
    Cd(r):	0.006783906	0.004885411	0.001898495	0
    Cl:	-0.00099202405	-0.000991023	-1.0010536e-06	0
    Cl(f):	-0.00055546119	-0.00049921475	-5.6246445e-05	0
    Cl(r):	-0.00043656286	-0.00049180825	5.5245391e-05	0
    CmPitch:	-5.9449166e-05	-3.7032484e-06	-5.5745918e-05	0
    CmRoll:	0.0028033867	0.0028042133	-8.2661389e-07	0
    CmYaw:	-0.014857177	-0.015908949	0.0010517715	0
    Cs:	0.17924486	0.17933086	-8.600314e-05	0
    Cs(f):	0.074765253	0.073756483	0.0010087699	0
    Cs(r):	0.10447961	0.10557438	-0.001094773	0

    writing force and moment coefficient files.

Time = 43

DILUPBiCGStab:  Solving for Ux, Initial residual = 1.3426099e-05, Final residual = 7.5953727e-08, No Iterations 1
[...]

    writing force and moment coefficient files.

Time = 567

DILUPBiCGStab:  Solving for Ux, Initial residual = 3.4686055e-07, Final residual = 2.5780729e-09, No Iterations 1
DILUPBiCGStab:  Solving for Uy, Initial residual = 5.8537305e-05, Final residual = 4.4581802e-07, No Iterations 1
DILUPBiCGStab:  Solving for Uz, Initial residual = 1.0807702e-05, Final residual = 8.4584691e-08, No Iterations 1
DILUPBiCGStab:  Solving for h, Initial residual = 2.362691e-06, Final residual = 2.2001387e-07, No Iterations 1
GAMG:  Solving for p, Initial residual = 0.00010718491, Final residual = 7.3119278e-07, No Iterations 5
GAMG:  Solving for p, Initial residual = 7.1704912e-06, Final residual = 4.6156461e-08, No Iterations 9
GAMG:  Solving for p, Initial residual = 1.4531171e-06, Final residual = 4.5908578e-08, No Iterations 2
time step continuity errors : sum local = 9.3076455e-08, global = 6.0039593e-09, cumulative = 2.65982e-05
DILUPBiCGStab:  Solving for nuTilda, Initial residual = 7.6971251e-06, Final residual = 4.678982e-08, No Iterations 1
ExecutionTime = 6471.64 s  ClockTime = 6472 s

forceCoeffs forceCoeffs write:
    Coefficient	Total	Pressure	Viscous	Internal
    Cd:	0.018641673	0.015498265	0.003143408	0
    Cd(f):	0.012725098	0.011159251	0.0015658472	0
    Cd(r):	0.0059165747	0.0043390139	0.0015775608	0
    Cl:	-0.002255255	-0.002254879	-3.7601333e-07	0
    Cl(f):	-0.0010523198	-0.0010058804	-4.6439439e-05	0
    Cl(r):	-0.0012029352	-0.0012489987	4.6063425e-05	0
    CmPitch:	7.5307714e-05	0.00012155915	-4.6251432e-05	0
    CmRoll:	0.0034042616	0.0034101184	-5.8568227e-06	0
    CmYaw:	-0.015491515	-0.016293235	0.00080172002	0
    Cs:	0.17996868	0.18034237	-0.00037369232	0
    Cs(f):	0.074492825	0.073877951	0.00061487386	0
    Cs(r):	0.10547586	0.10646442	-0.00098856618	0

    writing force and moment coefficient files.

Time = 568

DILUPBiCGStab:  Solving for Ux, Initial residual = 3.4563805e-07, Final residual = 2.5743255e-09, No Iterations 1
DILUPBiCGStab:  Solving for Uy, Initial residual = 5.8784624e-05, Final residual = 4.5063468e-07, No Iterations 1
DILUPBiCGStab:  Solving for Uz, Initial residual = 1.0752627e-05, Final residual = 8.4544652e-08, No Iterations 1
DILUPBiCGStab:  Solving for h, Initial residual = 2.3275052e-06, Final residual = 2.2227769e-07, No Iterations 1
GAMG:  Solving for p, Initial residual = 0.00010635325, Final residual = 7.1974089e-07, No Iterations 5
GAMG:  Solving for p, Initial residual = 7.0920424e-06, Final residual = 4.3575005e-08, No Iterations 9
GAMG:  Solving for p, Initial residual = 1.4335875e-06, Final residual = 4.5197685e-08, No Iterations 2
time step continuity errors : sum local = 9.1631287e-08, global = 5.3513038e-09, cumulative = 2.6603552e-05
DILUPBiCGStab:  Solving for nuTilda, Initial residual = 7.6847075e-06, Final residual = 4.7023617e-08, No Iterations 1
ExecutionTime = 6482.82 s  ClockTime = 6483 s

forceCoeffs forceCoeffs write:
    Coefficient	Total	Pressure	Viscous	Internal
    Cd:	0.018642065	0.015498663	0.0031434021	0
    Cd(f):	0.01272173	0.011155881	0.0015658494	0
    Cd(r):	0.0059203348	0.004342782	0.0015775527	0
    Cl:	-0.0022483472	-0.0022479622	-3.8499234e-07	0
    Cl(f):	-0.0010501117	-0.001003672	-4.6439718e-05	0
    Cl(r):	-0.0011982355	-0.0012442902	4.6054726e-05	0
    CmPitch:	7.4061902e-05	0.00012030912	-4.6247222e-05	0
    CmRoll:	0.0034006978	0.0034065495	-5.8516986e-06	0
    CmYaw:	-0.015491354	-0.016293071	0.00080171741	0
    Cs:	0.17996879	0.1803425	-0.0003737155	0
    Cs(f):	0.07449304	0.073878181	0.00061485966	0
    Cs(r):	0.10547575	0.10646432	-0.00098857516	0

    writing force and moment coefficient files.

Time = 569

DILUPBiCGStab:  Solving for Ux, Initial residual = 3.444693e-07, Final residual = 2.5720644e-09, No Iterations 1
DILUPBiCGStab:  Solving for Uy, Initial residual = 5.9037332e-05, Final residual = 4.5550836e-07, No Iterations 1
DILUPBiCGStab:  Solving for Uz, Initial residual = 1.0699954e-05, Final residual = 8.4460583e-08, No Iterations 1
DILUPBiCGStab:  Solving for h, Initial residual = 2.2925852e-06, Final residual = 2.2438249e-07, No Iterations 1
GAMG:  Solving for p, Initial residual = 0.0001056629, Final residual = 7.1544924e-07, No Iterations 5
GAMG:  Solving for p, Initial residual = 7.0541527e-06, Final residual = 4.6017265e-08, No Iterations 9
GAMG:  Solving for p, Initial residual = 1.430844e-06, Final residual = 4.4691128e-08, No Iterations 2
time step continuity errors : sum local = 9.0603365e-08, global = 5.9908529e-09, cumulative = 2.6609542e-05
DILUPBiCGStab:  Solving for nuTilda, Initial residual = 7.6798786e-06, Final residual = 4.7225871e-08, No Iterations 1
ExecutionTime = 6493.88 s  ClockTime = 6495 s

forceCoeffs forceCoeffs write:
    Coefficient	Total	Pressure	Viscous	Internal
    Cd:	0.018642438	0.015499066	0.0031433722	0
    Cd(f):	0.01271855	0.011152711	0.0015658387	0
    Cd(r):	0.0059238881	0.0043463546	0.0015775335	0
    Cl:	-0.0022418679	-0.0022414757	-3.9219272e-07	0
    Cl(f):	-0.001047987	-0.0010015472	-4.6439766e-05	0
    Cl(r):	-0.0011938809	-0.0012399285	4.6047573e-05	0
    CmPitch:	7.2946952e-05	0.00011919062	-4.624367e-05	0
    CmRoll:	0.003397331	0.0034031784	-5.8473621e-06	0
    CmYaw:	-0.015491199	-0.016292907	0.00080170746	0
    Cs:	0.17996889	0.18034263	-0.0003737404	0
    Cs(f):	0.074493245	0.073878408	0.00061483726	0
    Cs(r):	0.10547564	0.10646422	-0.00098857766	0

    writing force and moment coefficient files.

Time = 570

DILUPBiCGStab:  Solving for Ux, Initial residual = 3.4339116e-07, Final residual = 2.5714743e-09, No Iterations 1
DILUPBiCGStab:  Solving for Uy, Initial residual = 5.9282363e-05, Final residual = 4.6017272e-07, No Iterations 1
DILUPBiCGStab:  Solving for Uz, Initial residual = 1.0648877e-05, Final residual = 8.4337974e-08, No Iterations 1
DILUPBiCGStab:  Solving for h, Initial residual = 2.2577199e-06, Final residual = 1.111508e-08, No Iterations 1
GAMG:  Solving for p, Initial residual = 0.00010480532, Final residual = 7.0471495e-07, No Iterations 5
GAMG:  Solving for p, Initial residual = 6.9585292e-06, Final residual = 4.3534154e-08, No Iterations 9
GAMG:  Solving for p, Initial residual = 1.4030576e-06, Final residual = 4.2984799e-08, No Iterations 2
time step continuity errors : sum local = 8.7140402e-08, global = 5.4916056e-09, cumulative = 2.6615034e-05
DILUPBiCGStab:  Solving for nuTilda, Initial residual = 7.6809301e-06, Final residual = 4.7378164e-08, No Iterations 1
ExecutionTime = 6505 s  ClockTime = 6506 s

forceCoeffs forceCoeffs write:
    Coefficient	Total	Pressure	Viscous	Internal
    Cd:	0.018642842	0.015499474	0.0031433688	0
    Cd(f):	0.012715505	0.011149663	0.001565842	0
    Cd(r):	0.0059273375	0.0043498107	0.0015775268	0
    Cl:	-0.0022356471	-0.0022352461	-4.0099302e-07	0
    Cl(f):	-0.0010459346	-0.00099949453	-4.6440044e-05	0
    Cl(r):	-0.0011897125	-0.0012357516	4.6039051e-05	0
    CmPitch:	7.1888964e-05	0.00011812851	-4.6239548e-05	0
    CmRoll:	0.0033940837	0.0033999261	-5.8424187e-06	0
    CmYaw:	-0.015491033	-0.016292739	0.00080170612	0
    Cs:	0.17996899	0.18034276	-0.00037376195	0
    Cs(f):	0.074493464	0.073878639	0.00061482514	0
    Cs(r):	0.10547553	0.10646412	-0.0009885871	0

    writing force and moment coefficient files.

Time = 571

DILUPBiCGStab:  Solving for Ux, Initial residual = 3.4233448e-07, Final residual = 2.5704673e-09, No Iterations 1
DILUPBiCGStab:  Solving for Uy, Initial residual = 5.9525008e-05, Final residual = 4.6465202e-07, No Iterations 1
DILUPBiCGStab:  Solving for Uz, Initial residual = 1.0599329e-05, Final residual = 8.4191839e-08, No Iterations 1
DILUPBiCGStab:  Solving for h, Initial residual = 2.2243698e-06, Final residual = 2.1178451e-07, No Iterations 1
GAMG:  Solving for p, Initial residual = 0.00010403558, Final residual = 7.000286e-07, No Iterations 5
GAMG:  Solving for p, Initial residual = 6.8981097e-06, Final residual = 5.178209e-08, No Iterations 9
GAMG:  Solving for p, Initial residual = 1.4023459e-06, Final residual = 4.2654821e-08, No Iterations 2
time step continuity errors : sum local = 8.6470813e-08, global = 4.9692473e-09, cumulative = 2.6620003e-05
DILUPBiCGStab:  Solving for nuTilda, Initial residual = 7.6862899e-06, Final residual = 4.7548624e-08, No Iterations 1
ExecutionTime = 6515.98 s  ClockTime = 6517 s

forceCoeffs forceCoeffs write:
    Coefficient	Total	Pressure	Viscous	Internal
    Cd:	0.018643227	0.015499888	0.0031433397	0
    Cd(f):	0.01271265	0.011146818	0.0015658312	0
    Cd(r):	0.0059305778	0.0043530692	0.0015775085	0
    Cl:	-0.0022298656	-0.0022294584	-4.071289e-07	0
    Cl(f):	-0.0010439741	-0.00099753403	-4.6440029e-05	0
    Cl(r):	-0.0011858915	-0.0012319244	4.60329e-05	0
    CmPitch:	7.0958727e-05	0.00011719519	-4.6236465e-05	0
    CmRoll:	0.0033910359	0.0033968745	-5.8386712e-06	0
    CmYaw:	-0.015490874	-0.016292571	0.00080169656	0
    Cs:	0.17996909	0.18034288	-0.00037378524	0
    Cs(f):	0.074493671	0.073878867	0.00061480394	0
    Cs(r):	0.10547542	0.10646401	-0.00098858918	0

    writing force and moment coefficient files.

Time = 572

DILUPBiCGStab:  Solving for Ux, Initial residual = 3.4135513e-07, Final residual = 2.5693276e-09, No Iterations 1
DILUPBiCGStab:  Solving for Uy, Initial residual = 5.9755432e-05, Final residual = 4.6868904e-07, No Iterations 1
DILUPBiCGStab:  Solving for Uz, Initial residual = 1.0550706e-05, Final residual = 8.3987115e-08, No Iterations 1
DILUPBiCGStab:  Solving for h, Initial residual = 2.1909686e-06, Final residual = 1.0833359e-08, No Iterations 1
GAMG:  Solving for p, Initial residual = 0.00010316437, Final residual = 6.8852051e-07, No Iterations 5
GAMG:  Solving for p, Initial residual = 6.8051368e-06, Final residual = 4.985344e-08, No Iterations 9
GAMG:  Solving for p, Initial residual = 1.3804215e-06, Final residual = 4.1263469e-08, No Iterations 2
time step continuity errors : sum local = 8.3646599e-08, global = 4.6497516e-09, cumulative = 2.6624653e-05
DILUPBiCGStab:  Solving for nuTilda, Initial residual = 7.69512e-06, Final residual = 4.7680574e-08, No Iterations 1
ExecutionTime = 6527.05 s  ClockTime = 6528 s

forceCoeffs forceCoeffs write:
    Coefficient	Total	Pressure	Viscous	Internal
    Cd:	0.018643618	0.015500285	0.0031433325	0
    Cd(f):	0.012709893	0.011144061	0.0015658325	0
    Cd(r):	0.0059337246	0.0043562246	0.0015775	0
    Cl:	-0.0022242823	-0.002223866	-4.1633114e-07	0
    Cl(f):	-0.0010420904	-0.00099565025	-4.6440177e-05	0
    Cl(r):	-0.0011821919	-0.0012282157	4.6023846e-05	0
    CmPitch:	7.0050727e-05	0.00011628274	-4.6232012e-05	0
    CmRoll:	0.0033880843	0.003393918	-5.8337699e-06	0
    CmYaw:	-0.015490713	-0.016292407	0.00080169389	0
    Cs:	0.17996919	0.180343	-0.00037380559	0
    Cs(f):	0.074493884	0.073879093	0.00061479109	0
    Cs(r):	0.10547531	0.10646391	-0.00098859668	0

    writing force and moment coefficient files.

Time = 573

DILUPBiCGStab:  Solving for Ux, Initial residual = 3.4039557e-07, Final residual = 2.568155e-09, No Iterations 1
DILUPBiCGStab:  Solving for Uy, Initial residual = 5.9987121e-05, Final residual = 4.7236543e-07, No Iterations 1
DILUPBiCGStab:  Solving for Uz, Initial residual = 1.0502906e-05, Final residual = 8.3716821e-08, No Iterations 1
DILUPBiCGStab:  Solving for h, Initial residual = 2.1589528e-06, Final residual = 2.0949633e-07, No Iterations 1
GAMG:  Solving for p, Initial residual = 0.00010243632, Final residual = 6.8367268e-07, No Iterations 5
GAMG:  Solving for p, Initial residual = 6.7414086e-06, Final residual = 5.3123422e-08, No Iterations 9
GAMG:  Solving for p, Initial residual = 1.3708961e-06, Final residual = 4.2049566e-08, No Iterations 2
time step continuity errors : sum local = 8.5239998e-08, global = 2.5294144e-09, cumulative = 2.6627182e-05
DILUPBiCGStab:  Solving for nuTilda, Initial residual = 7.7077018e-06, Final residual = 4.7806258e-08, No Iterations 1
ExecutionTime = 6538.09 s  ClockTime = 6539 s

forceCoeffs forceCoeffs write:
    Coefficient	Total	Pressure	Viscous	Internal
    Cd:	0.018644006	0.015500703	0.0031433024	0
    Cd(f):	0.012707338	0.011141517	0.0015658211	0
    Cd(r):	0.0059366672	0.0043591859	0.0015774813	0
    Cl:	-0.0022191484	-0.0022187259	-4.224572e-07	0
    Cl(f):	-0.0010403044	-0.00099386431	-4.6440136e-05	0
    Cl(r):	-0.001178844	-0.0012248616	4.6017679e-05	0
    CmPitch:	6.9269755e-05	0.00011549866	-4.6228907e-05	0
    CmRoll:	0.0033853355	0.0033911656	-5.8301163e-06	0
    CmYaw:	-0.015490553	-0.016292238	0.00080168461	0
    Cs:	0.17996928	0.18034311	-0.00037382719	0
    Cs(f):	0.074494088	0.073879317	0.00061477101	0
    Cs(r):	0.10547519	0.10646379	-0.0009885982	0

    writing force and moment coefficient files.

Time = 574

DILUPBiCGStab:  Solving for Ux, Initial residual = 3.3950921e-07, Final residual = 2.566706e-09, No Iterations 1
DILUPBiCGStab:  Solving for Uy, Initial residual = 6.0204495e-05, Final residual = 4.7544317e-07, No Iterations 1
DILUPBiCGStab:  Solving for Uz, Initial residual = 1.0455598e-05, Final residual = 8.3373049e-08, No Iterations 1
DILUPBiCGStab:  Solving for h, Initial residual = 2.1267823e-06, Final residual = 1.0849042e-08, No Iterations 1
GAMG:  Solving for p, Initial residual = 0.00010166522, Final residual = 6.743205e-07, No Iterations 5
GAMG:  Solving for p, Initial residual = 6.6467535e-06, Final residual = 5.0832113e-08, No Iterations 9
GAMG:  Solving for p, Initial residual = 1.3503972e-06, Final residual = 4.0332216e-08, No Iterations 2
time step continuity errors : sum local = 8.1755577e-08, global = 3.09374e-09, cumulative = 2.6630276e-05
DILUPBiCGStab:  Solving for nuTilda, Initial residual = 7.7223919e-06, Final residual = 4.7921289e-08, No Iterations 1
ExecutionTime = 6549.27 s  ClockTime = 6550 s

forceCoeffs forceCoeffs write:
    Coefficient	Total	Pressure	Viscous	Internal
    Cd:	0.018644401	0.015501108	0.0031432933	0
    Cd(f):	0.012704869	0.011139047	0.0015658214	0
    Cd(r):	0.0059395323	0.0043620604	0.0015774719	0
    Cl:	-0.002214175	-0.0022137435	-4.3149862e-07	0
    Cl(f):	-0.0010385974	-0.00099215719	-4.6440259e-05	0
    Cl(r):	-0.0011755775	-0.0012215863	4.600876e-05	0
    CmPitch:	6.8490049e-05	0.00011471456	-4.6224509e-05	0
    CmRoll:	0.0033826682	0.0033884935	-5.8252756e-06	0
    CmYaw:	-0.015490388	-0.016292069	0.00080168139	0
    Cs:	0.17996938	0.18034323	-0.00037384663	0
    Cs(f):	0.074494301	0.073879543	0.00061475808	0
    Cs(r):	0.10547508	0.10646368	-0.00098860471	0

    writing force and moment coefficient files.

Time = 575

DILUPBiCGStab:  Solving for Ux, Initial residual = 3.3864995e-07, Final residual = 2.5648308e-09, No Iterations 1
DILUPBiCGStab:  Solving for Uy, Initial residual = 6.0424424e-05, Final residual = 4.7803641e-07, No Iterations 1
DILUPBiCGStab:  Solving for Uz, Initial residual = 1.0408742e-05, Final residual = 8.2959717e-08, No Iterations 1
DILUPBiCGStab:  Solving for h, Initial residual = 2.0963244e-06, Final residual = 2.0850205e-07, No Iterations 1
GAMG:  Solving for p, Initial residual = 0.00010101388, Final residual = 6.7469485e-07, No Iterations 5
GAMG:  Solving for p, Initial residual = 6.589525e-06, Final residual = 5.3076109e-08, No Iterations 9
GAMG:  Solving for p, Initial residual = 1.3424768e-06, Final residual = 4.116135e-08, No Iterations 2
time step continuity errors : sum local = 8.3436953e-08, global = 1.6585853e-09, cumulative = 2.6631935e-05
DILUPBiCGStab:  Solving for nuTilda, Initial residual = 7.7388068e-06, Final residual = 4.8018406e-08, No Iterations 1
ExecutionTime = 6560.3 s  ClockTime = 6561 s

forceCoeffs forceCoeffs write:
    Coefficient	Total	Pressure	Viscous	Internal
    Cd:	0.018644811	0.015501548	0.003143263	0
    Cd(f):	0.012702606	0.011136796	0.0015658095	0
    Cd(r):	0.0059422055	0.004364752	0.0015774535	0
    Cl:	-0.0022096444	-0.0022092075	-4.3683942e-07	0
    Cl(f):	-0.0010369891	-0.00099054893	-4.644018e-05	0
    Cl(r):	-0.0011726553	-0.0012186586	4.6003341e-05	0
    CmPitch:	6.7833081e-05	0.00011405484	-4.6221761e-05	0
    CmRoll:	0.0033802002	0.0033860222	-5.8220069e-06	0
    CmYaw:	-0.015490217	-0.016291889	0.0008016715	0
    Cs:	0.17996946	0.18034333	-0.00037386758	0
    Cs(f):	0.074494512	0.073879774	0.00061473771	0
    Cs(r):	0.10547495	0.10646355	-0.00098860529	0

    writing force and moment coefficient files.

Time = 576

DILUPBiCGStab:  Solving for Ux, Initial residual = 3.3787876e-07, Final residual = 2.5622329e-09, No Iterations 1
DILUPBiCGStab:  Solving for Uy, Initial residual = 6.0629638e-05, Final residual = 4.7994105e-07, No Iterations 1
DILUPBiCGStab:  Solving for Uz, Initial residual = 1.0362197e-05, Final residual = 8.2483559e-08, No Iterations 1
DILUPBiCGStab:  Solving for h, Initial residual = 2.0658954e-06, Final residual = 1.0706654e-08, No Iterations 1
GAMG:  Solving for p, Initial residual = 0.00010029162, Final residual = 6.7208485e-07, No Iterations 5
GAMG:  Solving for p, Initial residual = 6.5113292e-06, Final residual = 5.2605954e-08, No Iterations 9
GAMG:  Solving for p, Initial residual = 1.3236901e-06, Final residual = 4.0093386e-08, No Iterations 2
time step continuity errors : sum local = 8.12691e-08, global = 2.4903528e-09, cumulative = 2.6634425e-05
DILUPBiCGStab:  Solving for nuTilda, Initial residual = 7.7560386e-06, Final residual = 4.8096489e-08, No Iterations 1
ExecutionTime = 6571.44 s  ClockTime = 6572 s

forceCoeffs forceCoeffs write:
    Coefficient	Total	Pressure	Viscous	Internal
    Cd:	0.018645215	0.015501965	0.0031432501	0
    Cd(f):	0.012700399	0.011134591	0.0015658077	0
    Cd(r):	0.0059448165	0.0043673741	0.0015774424	0
    Cl:	-0.0022052158	-0.0022047701	-4.457358e-07	0
    Cl(f):	-0.0010354575	-0.0009890173	-4.6440193e-05	0
    Cl(r):	-0.0011697583	-0.0012157528	4.5994457e-05	0
    CmPitch:	6.7150428e-05	0.00011336775	-4.6217325e-05	0
    CmRoll:	0.0033777911	0.0033836085	-5.8173642e-06	0
    CmYaw:	-0.015490044	-0.01629171	0.00080166609	0
    Cs:	0.17996955	0.18034344	-0.00037388693	0
    Cs(f):	0.074494731	0.073880009	0.00061472262	0
    Cs(r):	0.10547482	0.10646343	-0.00098860955	0

    writing force and moment coefficient files.

Time = 577

DILUPBiCGStab:  Solving for Ux, Initial residual = 3.3714593e-07, Final residual = 2.5586014e-09, No Iterations 1
DILUPBiCGStab:  Solving for Uy, Initial residual = 6.0840887e-05, Final residual = 4.8144769e-07, No Iterations 1
DILUPBiCGStab:  Solving for Uz, Initial residual = 1.0315787e-05, Final residual = 8.1940714e-08, No Iterations 1
DILUPBiCGStab:  Solving for h, Initial residual = 2.037302e-06, Final residual = 9.4497291e-09, No Iterations 1
GAMG:  Solving for p, Initial residual = 9.9691377e-05, Final residual = 6.7382255e-07, No Iterations 5
GAMG:  Solving for p, Initial residual = 6.4593036e-06, Final residual = 5.3840281e-08, No Iterations 9
GAMG:  Solving for p, Initial residual = 1.3143386e-06, Final residual = 4.0975281e-08, No Iterations 2
time step continuity errors : sum local = 8.3057566e-08, global = 3.1268554e-09, cumulative = 2.6637552e-05
DILUPBiCGStab:  Solving for nuTilda, Initial residual = 7.7736619e-06, Final residual = 4.8173155e-08, No Iterations 1
ExecutionTime = 6582.61 s  ClockTime = 6583 s


SIMPLE solution converged in 577 iterations

forceCoeffs forceCoeffs write:
    Coefficient	Total	Pressure	Viscous	Internal
    Cd:	0.018645648	0.015502429	0.0031432193	0
    Cd(f):	0.012698406	0.011132611	0.0015657952	0
    Cd(r):	0.0059472417	0.0043698176	0.0015774241	0
    Cl:	-0.0022012363	-0.002200786	-4.5029803e-07	0
    Cl(f):	-0.0010340228	-0.00098758266	-4.6440115e-05	0
    Cl(r):	-0.0011672136	-0.0012132034	4.5989817e-05	0
    CmPitch:	6.6595397e-05	0.00011281036	-4.6214966e-05	0
    CmRoll:	0.0033755824	0.0033813968	-5.8144263e-06	0
    CmYaw:	-0.015489859	-0.016291515	0.00080165587	0
    Cs:	0.17996963	0.18034354	-0.00037390695	0
    Cs(f):	0.074494956	0.073880254	0.00061470239	0
    Cs(r):	0.10547467	0.10646328	-0.00098860934	0

    writing force and moment coefficient files.

End

Finalising parallel run
