/*---------------------------------------------------------------------------*\
| =========                 |                                                 |
| \\      /  F ield         | OpenFOAM: The Open Source CFD Toolbox           |
|  \\    /   O peration     | Version:  2412                                  |
|   \\  /    A nd           | Website:  www.openfoam.com                      |
|    \\/     M anipulation  |                                                 |
\*---------------------------------------------------------------------------*/
Build  : _e5c6ccc3-20250814 OPENFOAM=2412 patch=250814 version=2412
Arch   : "LSB;label=32;scalar=64"
Exec   : surfaceFeatureExtract
Date   : Jan 25 2026
Time   : 19:57:59
Host   : Albert
PID    : 351798
I/O    : uncollated
Case   : /home/shafa/controlSurfaces/trapezoidal_tapered
nProcs : 1
trapFpe: Floating point exception trapping enabled (FOAM_SIGFPE).
fileModificationChecking : Monitoring run-time modified files using timeStampMaster (fileModificationSkew 5, maxFileModificationPolls 20)
allowSystemOperations : Allowing user-supplied system call operations

// * * * * * * * * * * * * * * * * * * * * * * * * * * * * * * * * * * * * * //
Create time

--> FOAM Warning : 
    From virtual void Foam::Time::readDict()
    in file db/Time/TimeIO.C at line 403
    Reading "system/controlDict" at line 17 to 103
    Disabled output compression for non-ascii format (inefficient/ineffective)

Note: Feature line extraction only valid on closed manifold surfaces

Reading surfaceFeatureExtractDict

Surfaces     : Fin.stl
Output       : Fin
Load options : offset
Write options: writeObj=yes writeVTK=off

Statistics:
Triangles    : 1156 in 1 region(s)
Vertices     : 580
Bounding Box : (-0.039464299 -0.0030479999 -5.2825201e-15) (0.098740399 0.00012700001 0.069849998)

Constructing feature set from included angle 120
Selecting edges based purely on geometric tests: no
Removing all non-manifold edges (edges with > 2 connected faces) unless they cross multiple regions

Initial Feature set:
    points : 1
    edges  : 49
    of which
        region edges   : 0
        external edges : 49
        internal edges : 0

Final Feature set:
    points : 50
    of which
        convex             : 1
        concave            : 0
        mixed              : 0
        non-feature        : 49
    edges  : 49
    of which
        external edges     : 49
        internal edges     : 0
        flat edges         : 0
        open edges         : 0
        multiply connected : 0

Writing extendedFeatureEdgeMesh to "/home/shafa/controlSurfaces/trapezoidal_tapered/constant/extendedFeatureEdgeMesh/Fin.extendedFeatureEdgeMesh"

Writing extendedEdgeMesh components to "/home/shafa/controlSurfaces/trapezoidal_tapered/constant/extendedFeatureEdgeMesh/Fin"
Writing 1 convex feature points to "/home/shafa/controlSurfaces/trapezoidal_tapered/constant/extendedFeatureEdgeMesh/Fin_convexFeaturePts.obj"
Writing 0 concave feature points to "/home/shafa/controlSurfaces/trapezoidal_tapered/constant/extendedFeatureEdgeMesh/Fin_concaveFeaturePts.obj"
Writing 0 mixed feature points to "/home/shafa/controlSurfaces/trapezoidal_tapered/constant/extendedFeatureEdgeMesh/Fin_mixedFeaturePts.obj"
Writing 0 mixed feature point structure to "/home/shafa/controlSurfaces/trapezoidal_tapered/constant/extendedFeatureEdgeMesh/Fin_mixedFeaturePtsStructure.obj"
Writing 49 external edges to "/home/shafa/controlSurfaces/trapezoidal_tapered/constant/extendedFeatureEdgeMesh/Fin_externalEdges.obj"
Writing 0 internal edges to "/home/shafa/controlSurfaces/trapezoidal_tapered/constant/extendedFeatureEdgeMesh/Fin_internalEdges.obj"
Writing 0 flat edges to "/home/shafa/controlSurfaces/trapezoidal_tapered/constant/extendedFeatureEdgeMesh/Fin_flatEdges.obj"
Writing 0 open edges to "/home/shafa/controlSurfaces/trapezoidal_tapered/constant/extendedFeatureEdgeMesh/Fin_openEdges.obj"
Writing 0 multiple edges to "/home/shafa/controlSurfaces/trapezoidal_tapered/constant/extendedFeatureEdgeMesh/Fin_multipleEdges.obj"
Writing 0 region edges to "/home/shafa/controlSurfaces/trapezoidal_tapered/constant/extendedFeatureEdgeMesh/Fin_regionEdges.obj"
Writing 49 edge directions to "/home/shafa/controlSurfaces/trapezoidal_tapered/constant/extendedFeatureEdgeMesh/Fin_edgeDirections.obj"

Writing featureEdgeMesh to "/home/shafa/controlSurfaces/trapezoidal_tapered/constant/triSurface/Fin.eMesh"
ExecutionTime = 0.01 s  ClockTime = 0 s

End

