/*---------------------------------------------------------------------------*\
| =========                 |                                                 |
| \\      /  F ield         | OpenFOAM: The Open Source CFD Toolbox           |
|  \\    /   O peration     | Version:  2412                                  |
|   \\  /    A nd           | Website:  www.openfoam.com                      |
|    \\/     M anipulation  |                                                 |
\*---------------------------------------------------------------------------*/
Build  : _e5c6ccc3-20250814 OPENFOAM=2412 patch=250814 version=2412
Arch   : "LSB;label=32;scalar=64"
Exec   : snappyHexMesh -overwrite -parallel
Date   : Jan 25 2026
Time   : 19:58:07
Host   : Albert
PID    : 351805
I/O    : uncollated
Case   : /home/shafa/controlSurfaces/trapezoidal_tapered
nProcs : 6
Hosts  :
(
    (Albert 6)
)
Pstream initialized with:
    floatTransfer      : false
    maxCommsSize       : 0
    nProcsSimpleSum    : 0
    nonBlockingExchange: 0 (tuning: 0)
    exchange algorithm : 0
    commsType          : nonBlocking
    polling iterations : 0
trapFpe: Floating point exception trapping enabled (FOAM_SIGFPE).
fileModificationChecking : Monitoring run-time modified files using timeStampMaster (fileModificationSkew 5, maxFileModificationPolls 20)
allowSystemOperations : Allowing user-supplied system call operations

// * * * * * * * * * * * * * * * * * * * * * * * * * * * * * * * * * * * * * //
Create time

--> FOAM Warning : 
    From virtual void Foam::Time::readDict()
    in file db/Time/TimeIO.C at line 403
    Reading "system/controlDict" at line 17 to 103
    Disabled output compression for non-ascii format (inefficient/ineffective)
Create mesh for time = 0

Read mesh in = 0.52 s

Overall mesh bounding box  : (-1.033 -0.8264 0) (2.2057 0.8264 0.8963)
Relative tolerance         : 0.0001
Absolute matching distance : 0.00037449004

Reading refinement surfaces.
Read refinement surfaces in = 0 s

Reading refinement shells.
Refinement level according to distance to Fin.stl
    level 7 for all cells within 0.005 metre.
Read refinement shells in = 0 s

Setting refinement level of surface to be consistent with shells.
For geometry Fin.stl detected 0 uncached triangles out of 1156
Checked shell refinement in = 0.01 s

Reading features.
Read edgeMesh Fin.eMesh
    points      : 50
    edges       : 49
    boundingBox : (-0.039464299 -0.0030479999 -5.2825201e-15) (0.098740399 0.00012700001 0.069849998)

Refinement level according to distance to "Fin.eMesh" (50 points, 49 edges).
    level 6 for all cells within 0 metre.
Read features in = 0 s


Determining initial surface intersections
-----------------------------------------

Edge intersection testing:
    Number of edges             : 10832000
    Number of edges to retest   : 0
    Number of intersected edges : 0
Edge intersection testing:
    Number of edges             : 10832000
    Number of edges to retest   : 10832000
    Number of intersected edges : 135
Calculated surface intersections in = 2.69 s

Initial mesh : cells:3584000  faces:10832000  points:3664521  unbalance:0.0062120536
Cells per refinement level:
    0	3584000
Setting refinement level of surface to be consistent with curvature.
Checked curvature refinement in = 0 s


Adding patches for surface regions
----------------------------------

Patch Type                Region                        
----- ----                ------                        
Fin:

4     wall                Fin                           

Added patches in = 0.1 s

Edge intersection testing:
    Number of edges             : 10832000
    Number of edges to retest   : 0
    Number of intersected edges : 135
Decomposition method scotch [6]

Refinement phase
----------------

Found point (-0.5 0 0.4) in cell 255383 on processor 4

Feature refinement iteration 0
------------------------------

Marked for refinement due to explicit features             : 18 cells.
Determined cells to refine in = 7.58 s
Selected for feature refinement : 18 cells (out of 3584000)
Edge intersection testing:
    Number of edges             : 10832480
    Number of edges to retest   : 777
    Number of intersected edges : 213
Refined mesh in = 3.23 s
After refinement feature refinement iteration 0 : cells:3584126  faces:10832480  points:3664766  unbalance:0.0061766802
Cells per refinement level:
    0	3583982
    1	144
Balancing since max unbalance 0.0061766802 is larger than allowable 0
Balanced mesh in = 12.02 s
After balancing feature refinement iteration 0 : cells:3584126  faces:10832480  points:3664766  unbalance:0.0084645462
Cells per refinement level:
    0	3583982
    1	144

Feature refinement iteration 1
------------------------------

Marked for refinement due to explicit features             : 39 cells.
Determined cells to refine in = 7.75 s
Selected for feature refinement : 63 cells (out of 3584126)
Edge intersection testing:
    Number of edges             : 10834109
    Number of edges to retest   : 2494
    Number of intersected edges : 457
Refined mesh in = 2.88 s
After refinement feature refinement iteration 1 : cells:3584567  faces:10834109  points:3665553  unbalance:0.0085865322
Cells per refinement level:
    0	3583958
    1	297
    2	312
Balancing since max unbalance 0.0085865322 is larger than allowable 0
Balanced mesh in = 11.22 s
After balancing feature refinement iteration 1 : cells:3584567  faces:10834109  points:3665553  unbalance:0.0061661562
Cells per refinement level:
    0	3583958
    1	297
    2	312

Feature refinement iteration 2
------------------------------

Marked for refinement due to explicit features             : 76 cells.
Determined cells to refine in = 7.66 s
Selected for feature refinement : 138 cells (out of 3584567)
Edge intersection testing:
    Number of edges             : 10837613
    Number of edges to retest   : 5642
    Number of intersected edges : 860
Refined mesh in = 2.78 s
After refinement feature refinement iteration 2 : cells:3585533  faces:10837613  points:3667196  unbalance:0.0064339109
Cells per refinement level:
    0	3583942
    1	379
    2	604
    3	608
Balancing since max unbalance 0.0064339109 is larger than allowable 0
Balanced mesh in = 10.16 s
After balancing feature refinement iteration 2 : cells:3585533  faces:10837613  points:3667196  unbalance:0.0092340525
Cells per refinement level:
    0	3583942
    1	379
    2	604
    3	608

Feature refinement iteration 3
------------------------------

Marked for refinement due to explicit features             : 151 cells.
Determined cells to refine in = 7.74 s
Selected for feature refinement : 273 cells (out of 3585533)
Edge intersection testing:
    Number of edges             : 10844558
    Number of edges to retest   : 11078
    Number of intersected edges : 1936
Refined mesh in = 2.93 s
After refinement feature refinement iteration 3 : cells:3587444  faces:10844558  points:3670467  unbalance:0.0086964424
Cells per refinement level:
    0	3583936
    1	406
    2	677
    3	1217
    4	1208
Balancing since max unbalance 0.0086964424 is larger than allowable 0
Balanced mesh in = 10.7 s
After balancing feature refinement iteration 3 : cells:3587444  faces:10844558  points:3670467  unbalance:0.0055253824
Cells per refinement level:
    0	3583936
    1	406
    2	677
    3	1217
    4	1208

Feature refinement iteration 4
------------------------------

Marked for refinement due to explicit features             : 299 cells.
Determined cells to refine in = 7.97 s
Selected for feature refinement : 587 cells (out of 3587444)
Edge intersection testing:
    Number of edges             : 10859480
    Number of edges to retest   : 23865
    Number of intersected edges : 4099
Refined mesh in = 2.8 s
After refinement feature refinement iteration 4 : cells:3591553  faces:10859480  points:3677471  unbalance:0.0066286088
Cells per refinement level:
    0	3583932
    1	409
    2	848
    3	1511
    4	2461
    5	2392
Balancing since max unbalance 0.0066286088 is larger than allowable 0
Balanced mesh in = 10.87 s
After balancing feature refinement iteration 4 : cells:3591553  faces:10859480  points:3677471  unbalance:0.0072756827
Cells per refinement level:
    0	3583932
    1	409
    2	848
    3	1511
    4	2461
    5	2392

Feature refinement iteration 5
------------------------------

Marked for refinement due to explicit features             : 598 cells.
Determined cells to refine in = 7.73 s
Selected for feature refinement : 1194 cells (out of 3591553)
Edge intersection testing:
    Number of edges             : 10889804
    Number of edges to retest   : 48356
    Number of intersected edges : 7560
Refined mesh in = 2.87 s
After refinement feature refinement iteration 5 : cells:3599911  faces:10889804  points:3691702  unbalance:0.017750161
Cells per refinement level:
    0	3583925
    1	452
    2	901
    3	1787
    4	3124
    5	4938
    6	4784
Balancing since max unbalance 0.017750161 is larger than allowable 0
Balanced mesh in = 11.04 s
After balancing feature refinement iteration 5 : cells:3599911  faces:10889804  points:3691702  unbalance:0.0049137326
Cells per refinement level:
    0	3583925
    1	452
    2	901
    3	1787
    4	3124
    5	4938
    6	4784

Feature refinement iteration 6
------------------------------

Marked for refinement due to explicit features             : 0 cells.
Determined cells to refine in = 8.29 s
Selected for feature refinement : 0 cells (out of 3599911)
Stopping refining since too few cells selected.


Surface refinement iteration 0
------------------------------

Marked for refinement due to surface intersection          : 7639 cells.
Marked for refinement due to curvature/regions             : 0 cells.
Determined cells to refine in = 0.18 s
Selected for refinement : 8393 cells (out of 3599911)
Edge intersection testing:
    Number of edges             : 11089256
    Number of edges to retest   : 253440
    Number of intersected edges : 28259
Refined mesh in = 3.52 s
After refinement surface refinement iteration 0 : cells:3658662  faces:11089256  points:3774838  unbalance:0.079894781
Cells per refinement level:
    0	3583796
    1	1358
    2	1587
    3	3653
    4	7398
    5	13580
    6	22538
    7	24752
Balancing since max unbalance 0.079894781 is larger than allowable 0
Balanced mesh in = 11.62 s
After balancing surface refinement iteration 0 : cells:3658662  faces:11089256  points:3774838  unbalance:0.0066450522
Cells per refinement level:
    0	3583796
    1	1358
    2	1587
    3	3653
    4	7398
    5	13580
    6	22538
    7	24752

Surface refinement iteration 1
------------------------------

Marked for refinement due to surface intersection          : 18558 cells.
Marked for refinement due to curvature/regions             : 0 cells.
Determined cells to refine in = 0.37 s
Selected for refinement : 19966 cells (out of 3658662)
Edge intersection testing:
    Number of edges             : 11549666
    Number of edges to retest   : 663059
    Number of intersected edges : 68721
Refined mesh in = 3.8 s
After refinement surface refinement iteration 1 : cells:3798424  faces:11549666  points:3955695  unbalance:0.17994094
Cells per refinement level:
    0	3583773
    1	882
    2	6327
    3	6572
    4	15835
    5	30583
    6	54452
    7	100000
Balancing since max unbalance 0.17994094 is larger than allowable 0
Balanced mesh in = 12.23 s
After balancing surface refinement iteration 1 : cells:3798424  faces:11549666  points:3955695  unbalance:0.0045876922
Cells per refinement level:
    0	3583773
    1	882
    2	6327
    3	6572
    4	15835
    5	30583
    6	54452
    7	100000

Surface refinement iteration 2
------------------------------

Marked for refinement due to surface intersection          : 36663 cells.
Marked for refinement due to curvature/regions             : 0 cells.
Determined cells to refine in = 0.42 s
Selected for refinement : 39265 cells (out of 3798424)
Edge intersection testing:
    Number of edges             : 12450884
    Number of edges to retest   : 1245336
    Number of intersected edges : 144942
Refined mesh in = 5.46 s
After refinement surface refinement iteration 2 : cells:4073279  faces:12450884  points:4307072  unbalance:0.33664303
Cells per refinement level:
    0	3583759
    1	924
    2	4216
    3	25593
    4	28772
    5	66713
    6	121366
    7	241936
Balancing since max unbalance 0.33664303 is larger than allowable 0
Balanced mesh in = 13.44 s
After balancing surface refinement iteration 2 : cells:4073279  faces:12450884  points:4307072  unbalance:0.0091353919
Cells per refinement level:
    0	3583759
    1	924
    2	4216
    3	25593
    4	28772
    5	66713
    6	121366
    7	241936

Surface refinement iteration 3
------------------------------

No cells marked for refinement since reached limit 4000000.
Determined cells to refine in = 0.22 s
Selected for refinement : 0 cells (out of 4073279)
Stopping refining since too few cells selected.


Removing mesh beyond surface intersections
------------------------------------------

Setting cellZones according to locationsInMesh:
Location : (-0.5 0 0.4)
    cellZone : none

For cellZone none found point (-0.5 0 0.4) in global region 0 out of 2 regions.
--> FOAM Warning : 
    From void Foam::meshRefinement::nearestFace(const Foam::labelUList&, const Foam::bitSet&, Foam::autoPtr<Foam::mapDistribute>&, Foam::labelList&, Foam::label) const
    in file meshRefinement/meshRefinement.C at line 527
    Did not visit some faces, e.g. face 0 at (0.076794533 -0.032926875 0.005601875)
Keeping all cells containing inside points
Selected for keeping : 3939285 cells.
Edge intersection testing:
    Number of edges             : 12066470
    Number of edges to retest   : 140784
    Number of intersected edges : 144942

Shell refinement iteration 0
----------------------------

Marked for refinement due to distance to explicit features : 0 cells.
Marked for refinement due to refinement shells             : 170574 cells.
Determined cells to refine in = 5.26 s
Selected for internal refinement : 170963 cells (out of 3939285)
Edge intersection testing:
    Number of edges             : 15819221
    Number of edges to retest   : 4678178
    Number of intersected edges : 288541
Refined mesh in = 13.68 s
After refinement shell refinement iteration 0 : cells:5136026  faces:15819221  points:5549061  unbalance:1.0273554
Cells per refinement level:
    0	3583569
    1	1856
    2	5094
    3	25350
    4	154784
    5	141792
    6	377896
    7	845685
Balancing since max unbalance 1.0273554 is larger than allowable 0
Balanced mesh in = 20.78 s
After balancing shell refinement iteration 0 : cells:5136026  faces:15819221  points:5549071  unbalance:0.010000339
Cells per refinement level:
    0	3583569
    1	1856
    2	5094
    3	25350
    4	154784
    5	141792
    6	377896
    7	845685

Shell refinement iteration 1
----------------------------

No cells marked for refinement since reached limit 4000000.
Determined cells to refine in = 0.81 s
Selected for internal refinement : 71 cells (out of 5136026)
Edge intersection testing:
    Number of edges             : 15820916
    Number of edges to retest   : 6095
    Number of intersected edges : 288547
Refined mesh in = 5.43 s
After refinement shell refinement iteration 1 : cells:5136523  faces:15820916  points:5549792  unbalance:0.0097067608
Cells per refinement level:
    0	3583563
    1	1859
    2	5444
    3	25428
    4	154800
    5	141791
    6	377897
    7	845741
Balancing since max unbalance 0.0097067608 is larger than allowable 0
Balanced mesh in = 16.72 s
After balancing shell refinement iteration 1 : cells:5136523  faces:15820916  points:5549794  unbalance:0.0068266024
Cells per refinement level:
    0	3583563
    1	1859
    2	5444
    3	25428
    4	154800
    5	141791
    6	377897
    7	845741

Shell refinement iteration 2
----------------------------

No cells marked for refinement since reached limit 4000000.
Determined cells to refine in = 0.82 s
Selected for internal refinement : 72 cells (out of 5136523)
Edge intersection testing:
    Number of edges             : 15822683
    Number of edges to retest   : 5940
    Number of intersected edges : 288547
Refined mesh in = 4.88 s
After refinement shell refinement iteration 2 : cells:5137027  faces:15822683  points:5550558  unbalance:0.0067278214
Cells per refinement level:
    0	3583544
    1	1991
    2	5590
    3	25528
    4	154894
    5	141802
    6	377937
    7	845741
Balancing since max unbalance 0.0067278214 is larger than allowable 0
Balanced mesh in = 17.01 s
After balancing shell refinement iteration 2 : cells:5137027  faces:15822683  points:5550560  unbalance:0.0089458358
Cells per refinement level:
    0	3583544
    1	1991
    2	5590
    3	25528
    4	154894
    5	141802
    6	377937
    7	845741

Shell refinement iteration 3
----------------------------

No cells marked for refinement since reached limit 4000000.
Determined cells to refine in = 0.83 s
Selected for internal refinement : 49 cells (out of 5137027)
Edge intersection testing:
    Number of edges             : 15823856
    Number of edges to retest   : 4315
    Number of intersected edges : 288547
Refined mesh in = 4.87 s
After refinement shell refinement iteration 3 : cells:5137370  faces:15823856  points:5551052  unbalance:0.0087503917
Cells per refinement level:
    0	3583541
    1	2004
    2	5662
    3	25645
    4	154974
    5	141866
    6	377937
    7	845741
Balancing since max unbalance 0.0087503917 is larger than allowable 0
Balanced mesh in = 15.97 s
After balancing shell refinement iteration 3 : cells:5137370  faces:15823856  points:5551056  unbalance:0.009268945
Cells per refinement level:
    0	3583541
    1	2004
    2	5662
    3	25645
    4	154974
    5	141866
    6	377937
    7	845741

Shell refinement iteration 4
----------------------------

No cells marked for refinement since reached limit 4000000.
Determined cells to refine in = 0.77 s
Selected for internal refinement : 37 cells (out of 5137370)
Edge intersection testing:
    Number of edges             : 15824717
    Number of edges to retest   : 3276
    Number of intersected edges : 288547
Refined mesh in = 4.84 s
After refinement shell refinement iteration 4 : cells:5137629  faces:15824717  points:5551398  unbalance:0.0091226906
Cells per refinement level:
    0	3583538
    1	2018
    2	5729
    3	25743
    4	155018
    5	141897
    6	377945
    7	845741
Balancing since max unbalance 0.0091226906 is larger than allowable 0
Balanced mesh in = 15.84 s
After balancing shell refinement iteration 4 : cells:5137629  faces:15824717  points:5551404  unbalance:0.0092102797
Cells per refinement level:
    0	3583538
    1	2018
    2	5729
    3	25743
    4	155018
    5	141897
    6	377945
    7	845741

Shell refinement iteration 5
----------------------------

No cells marked for refinement since reached limit 4000000.
Determined cells to refine in = 0.75 s
Selected for internal refinement : 40 cells (out of 5137629)
Edge intersection testing:
    Number of edges             : 15825698
    Number of edges to retest   : 3507
    Number of intersected edges : 288547
Refined mesh in = 4.69 s
After refinement shell refinement iteration 5 : cells:5137909  faces:15825698  points:5551832  unbalance:0.0090190387
Cells per refinement level:
    0	3583532
    1	2062
    2	5749
    3	25825
    4	155126
    5	141929
    6	377945
    7	845741
Balancing since max unbalance 0.0090190387 is larger than allowable 0
Balanced mesh in = 15.72 s
After balancing shell refinement iteration 5 : cells:5137909  faces:15825698  points:5551837  unbalance:0.0068757543
Cells per refinement level:
    0	3583532
    1	2062
    2	5749
    3	25825
    4	155126
    5	141929
    6	377945
    7	845741

Shell refinement iteration 6
----------------------------

No cells marked for refinement since reached limit 4000000.
Determined cells to refine in = 0.81 s
Selected for internal refinement : 34 cells (out of 5137909)
Edge intersection testing:
    Number of edges             : 15826505
    Number of edges to retest   : 3070
    Number of intersected edges : 288547
Refined mesh in = 4.96 s
After refinement shell refinement iteration 6 : cells:5138147  faces:15826505  points:5552169  unbalance:0.0068291156
Cells per refinement level:
    0	3583528
    1	2086
    2	5802
    3	25903
    4	155205
    5	141937
    6	377945
    7	845741
Balancing since max unbalance 0.0068291156 is larger than allowable 0
Balanced mesh in = 15.7 s
After balancing shell refinement iteration 6 : cells:5138147  faces:15826505  points:5552173  unbalance:0.0093755589
Cells per refinement level:
    0	3583528
    1	2086
    2	5802
    3	25903
    4	155205
    5	141937
    6	377945
    7	845741

Shell refinement iteration 7
----------------------------

No cells marked for refinement since reached limit 4000000.
Determined cells to refine in = 0.71 s
Selected for internal refinement : 48 cells (out of 5138147)
Edge intersection testing:
    Number of edges             : 15827699
    Number of edges to retest   : 4103
    Number of intersected edges : 288547
Refined mesh in = 4.78 s
After refinement shell refinement iteration 7 : cells:5138483  faces:15827699  points:5552706  unbalance:0.0091951263
Cells per refinement level:
    0	3583526
    1	2093
    2	5861
    3	25999
    4	155258
    5	142020
    6	377985
    7	845741
Balancing since max unbalance 0.0091951263 is larger than allowable 0
Balanced mesh in = 16.73 s
After balancing shell refinement iteration 7 : cells:5138483  faces:15827699  points:5552710  unbalance:0.0058723557
Cells per refinement level:
    0	3583526
    1	2093
    2	5861
    3	25999
    4	155258
    5	142020
    6	377985
    7	845741

Shell refinement iteration 8
----------------------------

No cells marked for refinement since reached limit 4000000.
Determined cells to refine in = 0.88 s
Selected for internal refinement : 56 cells (out of 5138483)
Edge intersection testing:
    Number of edges             : 15829010
    Number of edges to retest   : 4990
    Number of intersected edges : 288547
Refined mesh in = 4.91 s
After refinement shell refinement iteration 8 : cells:5138875  faces:15829010  points:5553232  unbalance:0.0057956265
Cells per refinement level:
    0	3583515
    1	2165
    2	5971
    3	26134
    4	155329
    5	142027
    6	377993
    7	845741
Balancing since max unbalance 0.0057956265 is larger than allowable 0
Balanced mesh in = 16.06 s
After balancing shell refinement iteration 8 : cells:5138875  faces:15829010  points:5553236  unbalance:0.0072504196
Cells per refinement level:
    0	3583515
    1	2165
    2	5971
    3	26134
    4	155329
    5	142027
    6	377993
    7	845741

Shell refinement iteration 9
----------------------------

No cells marked for refinement since reached limit 4000000.
Determined cells to refine in = 0.75 s
Selected for internal refinement : 45 cells (out of 5138875)
Edge intersection testing:
    Number of edges             : 15830063
    Number of edges to retest   : 4300
    Number of intersected edges : 288547
Refined mesh in = 4.81 s
After refinement shell refinement iteration 9 : cells:5139190  faces:15830063  points:5553660  unbalance:0.0071886815
Cells per refinement level:
    0	3583512
    1	2178
    2	6043
    3	26261
    4	155326
    5	142112
    6	378017
    7	845741
Balancing since max unbalance 0.0071886815 is larger than allowable 0
Balanced mesh in = 15.64 s
After balancing shell refinement iteration 9 : cells:5139190  faces:15830063  points:5553663  unbalance:0.0051973171
Cells per refinement level:
    0	3583512
    1	2178
    2	6043
    3	26261
    4	155326
    5	142112
    6	378017
    7	845741

Shell refinement iteration 10
----------------------------

No cells marked for refinement since reached limit 4000000.
Determined cells to refine in = 0.8 s
Selected for internal refinement : 17 cells (out of 5139190)
Edge intersection testing:
    Number of edges             : 15830456
    Number of edges to retest   : 1730
    Number of intersected edges : 288547
Refined mesh in = 4.77 s
After refinement shell refinement iteration 10 : cells:5139309  faces:15830456  points:5553817  unbalance:0.0051549732
Cells per refinement level:
    0	3583511
    1	2182
    2	6074
    3	26264
    4	155360
    5	142160
    6	378017
    7	845741
Balancing since max unbalance 0.0051549732 is larger than allowable 0
Balanced mesh in = 18.12 s
After balancing shell refinement iteration 10 : cells:5139309  faces:15830456  points:5553821  unbalance:0.0074303763
Cells per refinement level:
    0	3583511
    1	2182
    2	6074
    3	26264
    4	155360
    5	142160
    6	378017
    7	845741

Shell refinement iteration 11
----------------------------

No cells marked for refinement since reached limit 4000000.
Determined cells to refine in = 0.93 s
Selected for internal refinement : 38 cells (out of 5139309)
Edge intersection testing:
    Number of edges             : 15831350
    Number of edges to retest   : 3636
    Number of intersected edges : 288547
Refined mesh in = 5.29 s
After refinement shell refinement iteration 11 : cells:5139575  faces:15831350  points:5554189  unbalance:0.0073782365
Cells per refinement level:
    0	3583509
    1	2184
    2	6177
    3	26329
    4	155413
    5	142181
    6	378041
    7	845741
Balancing since max unbalance 0.0073782365 is larger than allowable 0
Balanced mesh in = 16.35 s
After balancing shell refinement iteration 11 : cells:5139575  faces:15831350  points:5554197  unbalance:0.0089480161
Cells per refinement level:
    0	3583509
    1	2184
    2	6177
    3	26329
    4	155413
    5	142181
    6	378041
    7	845741

Shell refinement iteration 12
----------------------------

No cells marked for refinement since reached limit 4000000.
Determined cells to refine in = 0.75 s
Selected for internal refinement : 39 cells (out of 5139575)
Edge intersection testing:
    Number of edges             : 15832244
    Number of edges to retest   : 3950
    Number of intersected edges : 288547
Refined mesh in = 4.9 s
After refinement shell refinement iteration 12 : cells:5139848  faces:15832244  points:5554546  unbalance:0.0088372263
Cells per refinement level:
    0	3583505
    1	2212
    2	6197
    3	26415
    4	155490
    5	142199
    6	378089
    7	845741
Balancing since max unbalance 0.0088372263 is larger than allowable 0
Balanced mesh in = 15.87 s
After balancing shell refinement iteration 12 : cells:5139848  faces:15832244  points:5554548  unbalance:0.0099905678
Cells per refinement level:
    0	3583505
    1	2212
    2	6197
    3	26415
    4	155490
    5	142199
    6	378089
    7	845741

Shell refinement iteration 13
----------------------------

No cells marked for refinement since reached limit 4000000.
Determined cells to refine in = 0.74 s
Selected for internal refinement : 32 cells (out of 5139848)
Edge intersection testing:
    Number of edges             : 15832970
    Number of edges to retest   : 3151
    Number of intersected edges : 288547
Refined mesh in = 4.77 s
After refinement shell refinement iteration 13 : cells:5140072  faces:15832970  points:5554823  unbalance:0.009894803
Cells per refinement level:
    0	3583505
    1	2207
    2	6229
    3	26468
    4	155574
    5	142227
    6	378121
    7	845741
Balancing since max unbalance 0.009894803 is larger than allowable 0
Balanced mesh in = 16.04 s
After balancing shell refinement iteration 13 : cells:5140072  faces:15832970  points:5554825  unbalance:0.0079730401
Cells per refinement level:
    0	3583505
    1	2207
    2	6229
    3	26468
    4	155574
    5	142227
    6	378121
    7	845741

Shell refinement iteration 14
----------------------------

No cells marked for refinement since reached limit 4000000.
Determined cells to refine in = 0.74 s
Selected for internal refinement : 21 cells (out of 5140072)
Edge intersection testing:
    Number of edges             : 15833462
    Number of edges to retest   : 2120
    Number of intersected edges : 288547
Refined mesh in = 4.8 s
After refinement shell refinement iteration 14 : cells:5140219  faces:15833462  points:5555023  unbalance:0.0079442141
Cells per refinement level:
    0	3583505
    1	2203
    2	6254
    3	26518
    4	155620
    5	142241
    6	378137
    7	845741
Balancing since max unbalance 0.0079442141 is larger than allowable 0
Balanced mesh in = 15.65 s
After balancing shell refinement iteration 14 : cells:5140219  faces:15833462  points:5555026  unbalance:0.0080516025
Cells per refinement level:
    0	3583505
    1	2203
    2	6254
    3	26518
    4	155620
    5	142241
    6	378137
    7	845741

Shell refinement iteration 15
----------------------------

No cells marked for refinement since reached limit 4000000.
Determined cells to refine in = 0.78 s
Selected for internal refinement : 14 cells (out of 5140219)
Edge intersection testing:
    Number of edges             : 15833789
    Number of edges to retest   : 1431
    Number of intersected edges : 288547
Refined mesh in = 4.76 s
After refinement shell refinement iteration 15 : cells:5140317  faces:15833789  points:5555155  unbalance:0.008032384
Cells per refinement level:
    0	3583504
    1	2209
    2	6266
    3	26548
    4	155631
    5	142281
    6	378137
    7	845741
Balancing since max unbalance 0.008032384 is larger than allowable 0
Balanced mesh in = 15.73 s
After balancing shell refinement iteration 15 : cells:5140317  faces:15833789  points:5555162  unbalance:0.0059500221
Cells per refinement level:
    0	3583504
    1	2209
    2	6266
    3	26548
    4	155631
    5	142281
    6	378137
    7	845741

Shell refinement iteration 16
----------------------------

No cells marked for refinement since reached limit 4000000.
Determined cells to refine in = 0.75 s
Selected for internal refinement : 44 cells (out of 5140317)
Edge intersection testing:
    Number of edges             : 15834809
    Number of edges to retest   : 4213
    Number of intersected edges : 288547
Refined mesh in = 4.66 s
After refinement shell refinement iteration 16 : cells:5140625  faces:15834809  points:5555571  unbalance:0.0058897508
Cells per refinement level:
    0	3583501
    1	2222
    2	6342
    3	26633
    4	155712
    5	142337
    6	378137
    7	845741
Balancing since max unbalance 0.0058897508 is larger than allowable 0
Balanced mesh in = 15.89 s
After balancing shell refinement iteration 16 : cells:5140625  faces:15834809  points:5555575  unbalance:0.0050563891
Cells per refinement level:
    0	3583501
    1	2222
    2	6342
    3	26633
    4	155712
    5	142337
    6	378137
    7	845741

Shell refinement iteration 17
----------------------------

No cells marked for refinement since reached limit 4000000.
Determined cells to refine in = 0.73 s
Selected for internal refinement : 36 cells (out of 5140625)
Edge intersection testing:
    Number of edges             : 15835661
    Number of edges to retest   : 3171
    Number of intersected edges : 288547
Refined mesh in = 4.9 s
After refinement shell refinement iteration 17 : cells:5140877  faces:15835661  points:5555919  unbalance:0.0050071223
Cells per refinement level:
    0	3583500
    1	2225
    2	6378
    3	26642
    4	155893
    5	142361
    6	378137
    7	845741
Balancing since max unbalance 0.0050071223 is larger than allowable 0
Balanced mesh in = 15.86 s
After balancing shell refinement iteration 17 : cells:5140877  faces:15835661  points:5555926  unbalance:0.009278378
Cells per refinement level:
    0	3583500
    1	2225
    2	6378
    3	26642
    4	155893
    5	142361
    6	378137
    7	845741

Shell refinement iteration 18
----------------------------

No cells marked for refinement since reached limit 4000000.
Determined cells to refine in = 0.78 s
Selected for internal refinement : 22 cells (out of 5140877)
Edge intersection testing:
    Number of edges             : 15836183
    Number of edges to retest   : 2011
    Number of intersected edges : 288547
Refined mesh in = 4.72 s
After refinement shell refinement iteration 18 : cells:5141031  faces:15836183  points:5556137  unbalance:0.0092426986
Cells per refinement level:
    0	3583500
    1	2223
    2	6383
    3	26722
    4	155956
    5	142369
    6	378137
    7	845741
Balancing since max unbalance 0.0092426986 is larger than allowable 0
Balanced mesh in = 15.53 s
After balancing shell refinement iteration 18 : cells:5141031  faces:15836183  points:5556141  unbalance:0.0094679452
Cells per refinement level:
    0	3583500
    1	2223
    2	6383
    3	26722
    4	155956
    5	142369
    6	378137
    7	845741

Shell refinement iteration 19
----------------------------

No cells marked for refinement since reached limit 4000000.
Determined cells to refine in = 0.74 s
Selected for internal refinement : 31 cells (out of 5141031)
Edge intersection testing:
    Number of edges             : 15836915
    Number of edges to retest   : 2777
    Number of intersected edges : 288547
Refined mesh in = 4.73 s
After refinement shell refinement iteration 19 : cells:5141248  faces:15836915  points:5556441  unbalance:0.0093627073
Cells per refinement level:
    0	3583497
    1	2235
    2	6475
    3	26750
    4	155986
    5	142379
    6	378185
    7	845741
Balancing since max unbalance 0.0093627073 is larger than allowable 0
Balanced mesh in = 15.85 s
After balancing shell refinement iteration 19 : cells:5141248  faces:15836915  points:5556451  unbalance:0.0066886484
Cells per refinement level:
    0	3583497
    1	2235
    2	6475
    3	26750
    4	155986
    5	142379
    6	378185
    7	845741

Shell refinement iteration 20
----------------------------

No cells marked for refinement since reached limit 4000000.
Determined cells to refine in = 0.73 s
Selected for internal refinement : 30 cells (out of 5141248)
Edge intersection testing:
    Number of edges             : 15837623
    Number of edges to retest   : 2987
    Number of intersected edges : 288547
Refined mesh in = 4.74 s
After refinement shell refinement iteration 20 : cells:5141458  faces:15837623  points:5556744  unbalance:0.0066475307
Cells per refinement level:
    0	3583494
    1	2253
    2	6514
    3	26819
    4	156002
    5	142442
    6	378193
    7	845741
Balancing since max unbalance 0.0066475307 is larger than allowable 0
Balanced mesh in = 16.34 s
After balancing shell refinement iteration 20 : cells:5141458  faces:15837623  points:5556749  unbalance:0.009278302
Cells per refinement level:
    0	3583494
    1	2253
    2	6514
    3	26819
    4	156002
    5	142442
    6	378193
    7	845741

Shell refinement iteration 21
----------------------------

No cells marked for refinement since reached limit 4000000.
Determined cells to refine in = 0.77 s
Selected for internal refinement : 27 cells (out of 5141458)
Edge intersection testing:
    Number of edges             : 15838238
    Number of edges to retest   : 2617
    Number of intersected edges : 288547
Refined mesh in = 4.83 s
After refinement shell refinement iteration 21 : cells:5141647  faces:15838238  points:5556985  unbalance:0.0092330337
Cells per refinement level:
    0	3583493
    1	2259
    2	6525
    3	26849
    4	156077
    5	142478
    6	378225
    7	845741
Balancing since max unbalance 0.0092330337 is larger than allowable 0
Balanced mesh in = 16.32 s
After balancing shell refinement iteration 21 : cells:5141647  faces:15838238  points:5556989  unbalance:0.0099752083
Cells per refinement level:
    0	3583493
    1	2259
    2	6525
    3	26849
    4	156077
    5	142478
    6	378225
    7	845741

Shell refinement iteration 22
----------------------------

No cells marked for refinement since reached limit 4000000.
Determined cells to refine in = 0.73 s
Selected for internal refinement : 27 cells (out of 5141647)
Edge intersection testing:
    Number of edges             : 15838838
    Number of edges to retest   : 2657
    Number of intersected edges : 288547
Refined mesh in = 4.61 s
After refinement shell refinement iteration 22 : cells:5141836  faces:15838838  points:5557206  unbalance:0.0099462527
Cells per refinement level:
    0	3583492
    1	2263
    2	6551
    3	26889
    4	156134
    5	142533
    6	378233
    7	845741
Balancing since max unbalance 0.0099462527 is larger than allowable 0
Balanced mesh in = 16.58 s
After balancing shell refinement iteration 22 : cells:5141836  faces:15838838  points:5557212  unbalance:0.0095553417
Cells per refinement level:
    0	3583492
    1	2263
    2	6551
    3	26889
    4	156134
    5	142533
    6	378233
    7	845741

Shell refinement iteration 23
----------------------------

No cells marked for refinement since reached limit 4000000.
Determined cells to refine in = 0.73 s
Selected for internal refinement : 35 cells (out of 5141836)
Edge intersection testing:
    Number of edges             : 15839657
    Number of edges to retest   : 3586
    Number of intersected edges : 288547
Refined mesh in = 5.05 s
After refinement shell refinement iteration 23 : cells:5142081  faces:15839657  points:5557553  unbalance:0.0094065029
Cells per refinement level:
    0	3583491
    1	2269
    2	6559
    3	26939
    4	156237
    5	142604
    6	378241
    7	845741
Balancing since max unbalance 0.0094065029 is larger than allowable 0
Balanced mesh in = 16.16 s
After balancing shell refinement iteration 23 : cells:5142081  faces:15839657  points:5557555  unbalance:0.003410098
Cells per refinement level:
    0	3583491
    1	2269
    2	6559
    3	26939
    4	156237
    5	142604
    6	378241
    7	845741

Shell refinement iteration 24
----------------------------

No cells marked for refinement since reached limit 4000000.
Determined cells to refine in = 0.76 s
Selected for internal refinement : 31 cells (out of 5142081)
Edge intersection testing:
    Number of edges             : 15840329
    Number of edges to retest   : 3201
    Number of intersected edges : 288547
Refined mesh in = 4.95 s
After refinement shell refinement iteration 24 : cells:5142298  faces:15840329  points:5557787  unbalance:0.0034085928
Cells per refinement level:
    0	3583488
    1	2289
    2	6579
    3	27025
    4	156315
    5	142620
    6	378241
    7	845741
Balancing since max unbalance 0.0034085928 is larger than allowable 0
Balanced mesh in = 16.5 s
After balancing shell refinement iteration 24 : cells:5142298  faces:15840329  points:5557791  unbalance:0.0078836349
Cells per refinement level:
    0	3583488
    1	2289
    2	6579
    3	27025
    4	156315
    5	142620
    6	378241
    7	845741

Shell refinement iteration 25
----------------------------

No cells marked for refinement since reached limit 4000000.
Determined cells to refine in = 0.74 s
Selected for internal refinement : 21 cells (out of 5142298)
Edge intersection testing:
    Number of edges             : 15840773
    Number of edges to retest   : 2277
    Number of intersected edges : 288547
Refined mesh in = 4.99 s
After refinement shell refinement iteration 25 : cells:5142445  faces:15840773  points:5557941  unbalance:0.0077976527
Cells per refinement level:
    0	3583488
    1	2283
    2	6620
    3	27078
    4	156336
    5	142642
    6	378257
    7	845741
Balancing since max unbalance 0.0077976527 is larger than allowable 0
Balanced mesh in = 15.83 s
After balancing shell refinement iteration 25 : cells:5142445  faces:15840773  points:5557944  unbalance:0.0091802635
Cells per refinement level:
    0	3583488
    1	2283
    2	6620
    3	27078
    4	156336
    5	142642
    6	378257
    7	845741

Shell refinement iteration 26
----------------------------

No cells marked for refinement since reached limit 4000000.
Determined cells to refine in = 0.79 s
Selected for internal refinement : 17 cells (out of 5142445)
Edge intersection testing:
    Number of edges             : 15841148
    Number of edges to retest   : 1624
    Number of intersected edges : 288547
Refined mesh in = 4.68 s
After refinement shell refinement iteration 26 : cells:5142564  faces:15841148  points:5558078  unbalance:0.0091378542
Cells per refinement level:
    0	3583487
    1	2290
    2	6619
    3	27145
    4	156375
    5	142650
    6	378257
    7	845741
Balancing since max unbalance 0.0091378542 is larger than allowable 0
Balanced mesh in = 16.98 s
After balancing shell refinement iteration 26 : cells:5142564  faces:15841148  points:5558083  unbalance:0.0094167034
Cells per refinement level:
    0	3583487
    1	2290
    2	6619
    3	27145
    4	156375
    5	142650
    6	378257
    7	845741

Shell refinement iteration 27
----------------------------

No cells marked for refinement since reached limit 4000000.
Determined cells to refine in = 0.8 s
Selected for internal refinement : 24 cells (out of 5142564)
Edge intersection testing:
    Number of edges             : 15841637
    Number of edges to retest   : 2522
    Number of intersected edges : 288547
Refined mesh in = 5.19 s
After refinement shell refinement iteration 27 : cells:5142732  faces:15841637  points:5558234  unbalance:0.0093918952
Cells per refinement level:
    0	3583486
    1	2291
    2	6670
    3	27180
    4	156412
    5	142671
    6	378281
    7	845741
Balancing since max unbalance 0.0093918952 is larger than allowable 0
Balanced mesh in = 19.52 s
After balancing shell refinement iteration 27 : cells:5142732  faces:15841637  points:5558244  unbalance:0.0095552325
Cells per refinement level:
    0	3583486
    1	2291
    2	6670
    3	27180
    4	156412
    5	142671
    6	378281
    7	845741

Shell refinement iteration 28
----------------------------

No cells marked for refinement since reached limit 4000000.
Determined cells to refine in = 0.87 s
Selected for internal refinement : 24 cells (out of 5142732)
Edge intersection testing:
    Number of edges             : 15842219
    Number of edges to retest   : 2219
    Number of intersected edges : 288547
Refined mesh in = 5.29 s
After refinement shell refinement iteration 28 : cells:5142900  faces:15842219  points:5558489  unbalance:0.0094650878
Cells per refinement level:
    0	3583486
    1	2289
    2	6679
    3	27226
    4	156488
    5	142702
    6	378289
    7	845741
Balancing since max unbalance 0.0094650878 is larger than allowable 0
Balanced mesh in = 16.56 s
After balancing shell refinement iteration 28 : cells:5142900  faces:15842219  points:5558494  unbalance:0.0099994167
Cells per refinement level:
    0	3583486
    1	2289
    2	6679
    3	27226
    4	156488
    5	142702
    6	378289
    7	845741

Shell refinement iteration 29
----------------------------

No cells marked for refinement since reached limit 4000000.
Determined cells to refine in = 0.77 s
Selected for internal refinement : 24 cells (out of 5142900)
Edge intersection testing:
    Number of edges             : 15842726
    Number of edges to retest   : 2548
    Number of intersected edges : 288547
Refined mesh in = 5.02 s
After refinement shell refinement iteration 29 : cells:5143068  faces:15842726  points:5558663  unbalance:0.0099664247
Cells per refinement level:
    0	3583486
    1	2283
    2	6723
    3	27248
    4	156565
    5	142725
    6	378297
    7	845741
Balancing since max unbalance 0.0099664247 is larger than allowable 0
Balanced mesh in = 18.63 s
After balancing shell refinement iteration 29 : cells:5143068  faces:15842726  points:5558669  unbalance:0.0089724655
Cells per refinement level:
    0	3583486
    1	2283
    2	6723
    3	27248
    4	156565
    5	142725
    6	378297
    7	845741

Shell refinement iteration 30
----------------------------

No cells marked for refinement since reached limit 4000000.
Determined cells to refine in = 0.77 s
Selected for internal refinement : 14 cells (out of 5143068)
Edge intersection testing:
    Number of edges             : 15843038
    Number of edges to retest   : 1510
    Number of intersected edges : 288547
Refined mesh in = 4.96 s
After refinement shell refinement iteration 30 : cells:5143166  faces:15843038  points:5558782  unbalance:0.0089423519
Cells per refinement level:
    0	3583486
    1	2280
    2	6743
    3	27275
    4	156603
    5	142741
    6	378297
    7	845741
Balancing since max unbalance 0.0089423519 is larger than allowable 0
Balanced mesh in = 17.38 s
After balancing shell refinement iteration 30 : cells:5143166  faces:15843038  points:5558784  unbalance:0.0088097487
Cells per refinement level:
    0	3583486
    1	2280
    2	6743
    3	27275
    4	156603
    5	142741
    6	378297
    7	845741

Shell refinement iteration 31
----------------------------

No cells marked for refinement since reached limit 4000000.
Determined cells to refine in = 0.83 s
Selected for internal refinement : 34 cells (out of 5143166)
Edge intersection testing:
    Number of edges             : 15843809
    Number of edges to retest   : 3275
    Number of intersected edges : 288547
Refined mesh in = 5.14 s
After refinement shell refinement iteration 31 : cells:5143404  faces:15843809  points:5559073  unbalance:0.0087630682
Cells per refinement level:
    0	3583486
    1	2279
    2	6740
    3	27355
    4	156655
    5	142835
    6	378313
    7	845741
Balancing since max unbalance 0.0087630682 is larger than allowable 0
Balanced mesh in = 16.4 s
After balancing shell refinement iteration 31 : cells:5143404  faces:15843809  points:5559079  unbalance:0.0083116162
Cells per refinement level:
    0	3583486
    1	2279
    2	6740
    3	27355
    4	156655
    5	142835
    6	378313
    7	845741

Shell refinement iteration 32
----------------------------

No cells marked for refinement since reached limit 4000000.
Determined cells to refine in = 0.78 s
Selected for internal refinement : 21 cells (out of 5143404)
Edge intersection testing:
    Number of edges             : 15844235
    Number of edges to retest   : 2332
    Number of intersected edges : 288547
Refined mesh in = 4.84 s
After refinement shell refinement iteration 32 : cells:5143551  faces:15844235  points:5559214  unbalance:0.0083399581
Cells per refinement level:
    0	3583486
    1	2275
    2	6767
    3	27386
    4	156725
    5	142850
    6	378321
    7	845741
Balancing since max unbalance 0.0083399581 is larger than allowable 0
Balanced mesh in = 16.63 s
After balancing shell refinement iteration 32 : cells:5143551  faces:15844235  points:5559219  unbalance:0.0099987343
Cells per refinement level:
    0	3583486
    1	2275
    2	6767
    3	27386
    4	156725
    5	142850
    6	378321
    7	845741

Shell refinement iteration 33
----------------------------

No cells marked for refinement since reached limit 4000000.
Determined cells to refine in = 0.8 s
Selected for internal refinement : 13 cells (out of 5143551)
Edge intersection testing:
    Number of edges             : 15844529
    Number of edges to retest   : 1332
    Number of intersected edges : 288547
Refined mesh in = 4.94 s
After refinement shell refinement iteration 33 : cells:5143642  faces:15844529  points:5559330  unbalance:0.0099808657
Cells per refinement level:
    0	3583486
    1	2274
    2	6775
    3	27381
    4	156761
    5	142879
    6	378345
    7	845741
Balancing since max unbalance 0.0099808657 is larger than allowable 0
Balanced mesh in = 16.93 s
After balancing shell refinement iteration 33 : cells:5143642  faces:15844529  points:5559335  unbalance:0.008668566
Cells per refinement level:
    0	3583486
    1	2274
    2	6775
    3	27381
    4	156761
    5	142879
    6	378345
    7	845741

Shell refinement iteration 34
----------------------------

No cells marked for refinement since reached limit 4000000.
Determined cells to refine in = 0.84 s
Selected for internal refinement : 11 cells (out of 5143642)
Edge intersection testing:
    Number of edges             : 15844763
    Number of edges to retest   : 1204
    Number of intersected edges : 288547
Refined mesh in = 4.72 s
After refinement shell refinement iteration 34 : cells:5143719  faces:15844763  points:5559417  unbalance:0.0086534665
Cells per refinement level:
    0	3583486
    1	2274
    2	6773
    3	27389
    4	156824
    5	142887
    6	378345
    7	845741
Balancing since max unbalance 0.0086534665 is larger than allowable 0
Balanced mesh in = 17.03 s
After balancing shell refinement iteration 34 : cells:5143719  faces:15844763  points:5559419  unbalance:0.0098945918
Cells per refinement level:
    0	3583486
    1	2274
    2	6773
    3	27389
    4	156824
    5	142887
    6	378345
    7	845741

Shell refinement iteration 35
----------------------------

No cells marked for refinement since reached limit 4000000.
Determined cells to refine in = 0.76 s
Selected for internal refinement : 29 cells (out of 5143719)
Edge intersection testing:
    Number of edges             : 15845402
    Number of edges to retest   : 2868
    Number of intersected edges : 288547
Refined mesh in = 4.84 s
After refinement shell refinement iteration 35 : cells:5143922  faces:15845402  points:5559653  unbalance:0.0097622009
Cells per refinement level:
    0	3583484
    1	2288
    2	6782
    3	27438
    4	156875
    5	142921
    6	378393
    7	845741
Balancing since max unbalance 0.0097622009 is larger than allowable 0
Balanced mesh in = 15.92 s
After balancing shell refinement iteration 35 : cells:5143922  faces:15845402  points:5559658  unbalance:0.0070549281
Cells per refinement level:
    0	3583484
    1	2288
    2	6782
    3	27438
    4	156875
    5	142921
    6	378393
    7	845741

Shell refinement iteration 36
----------------------------

No cells marked for refinement since reached limit 4000000.
Determined cells to refine in = 0.77 s
Selected for internal refinement : 23 cells (out of 5143922)
Edge intersection testing:
    Number of edges             : 15845912
    Number of edges to retest   : 2318
    Number of intersected edges : 288547
Refined mesh in = 4.67 s
After refinement shell refinement iteration 36 : cells:5144083  faces:15845912  points:5559845  unbalance:0.0069635346
Cells per refinement level:
    0	3583483
    1	2294
    2	6793
    3	27473
    4	156909
    5	142965
    6	378425
    7	845741
Balancing since max unbalance 0.0069635346 is larger than allowable 0
Balanced mesh in = 15.92 s
After balancing shell refinement iteration 36 : cells:5144083  faces:15845912  points:5559848  unbalance:0.0092613202
Cells per refinement level:
    0	3583483
    1	2294
    2	6793
    3	27473
    4	156909
    5	142965
    6	378425
    7	845741

Shell refinement iteration 37
----------------------------

No cells marked for refinement since reached limit 4000000.
Determined cells to refine in = 0.77 s
Selected for internal refinement : 22 cells (out of 5144083)
Edge intersection testing:
    Number of edges             : 15846377
    Number of edges to retest   : 2163
    Number of intersected edges : 288547
Refined mesh in = 4.89 s
After refinement shell refinement iteration 37 : cells:5144237  faces:15846377  points:5560004  unbalance:0.0092093346
Cells per refinement level:
    0	3583482
    1	2297
    2	6828
    3	27506
    4	156963
    5	142979
    6	378441
    7	845741
Balancing since max unbalance 0.0092093346 is larger than allowable 0
Balanced mesh in = 15.64 s
After balancing shell refinement iteration 37 : cells:5144237  faces:15846377  points:5560008  unbalance:0.0082299863
Cells per refinement level:
    0	3583482
    1	2297
    2	6828
    3	27506
    4	156963
    5	142979
    6	378441
    7	845741

Shell refinement iteration 38
----------------------------

No cells marked for refinement since reached limit 4000000.
Determined cells to refine in = 0.74 s
Selected for internal refinement : 22 cells (out of 5144237)
Edge intersection testing:
    Number of edges             : 15846908
    Number of edges to retest   : 2136
    Number of intersected edges : 288547
Refined mesh in = 4.96 s
After refinement shell refinement iteration 38 : cells:5144391  faces:15846908  points:5560227  unbalance:0.0081998044
Cells per refinement level:
    0	3583481
    1	2302
    2	6847
    3	27544
    4	156973
    5	143022
    6	378481
    7	845741
Balancing since max unbalance 0.0081998044 is larger than allowable 0
Balanced mesh in = 16.19 s
After balancing shell refinement iteration 38 : cells:5144391  faces:15846908  points:5560233  unbalance:0.009998268
Cells per refinement level:
    0	3583481
    1	2302
    2	6847
    3	27544
    4	156973
    5	143022
    6	378481
    7	845741

Shell refinement iteration 39
----------------------------

No cells marked for refinement since reached limit 4000000.
Determined cells to refine in = 0.82 s
Selected for internal refinement : 24 cells (out of 5144391)
Edge intersection testing:
    Number of edges             : 15847463
    Number of edges to retest   : 2428
    Number of intersected edges : 288547
Refined mesh in = 4.89 s
After refinement shell refinement iteration 39 : cells:5144559  faces:15847463  points:5560452  unbalance:0.0099652857
Cells per refinement level:
    0	3583480
    1	2306
    2	6874
    3	27582
    4	156984
    5	143055
    6	378537
    7	845741
Balancing since max unbalance 0.0099652857 is larger than allowable 0
Balanced mesh in = 16.3 s
After balancing shell refinement iteration 39 : cells:5144559  faces:15847463  points:5560458  unbalance:0.0070694106
Cells per refinement level:
    0	3583480
    1	2306
    2	6874
    3	27582
    4	156984
    5	143055
    6	378537
    7	845741

Shell refinement iteration 40
----------------------------

No cells marked for refinement since reached limit 4000000.
Determined cells to refine in = 0.73 s
Selected for internal refinement : 19 cells (out of 5144559)
Edge intersection testing:
    Number of edges             : 15847880
    Number of edges to retest   : 1952
    Number of intersected edges : 288547
Refined mesh in = 4.94 s
After refinement shell refinement iteration 40 : cells:5144692  faces:15847880  points:5560607  unbalance:0.007043376
Cells per refinement level:
    0	3583479
    1	2313
    2	6877
    3	27616
    4	157028
    5	143085
    6	378553
    7	845741
Balancing since max unbalance 0.007043376 is larger than allowable 0
Balanced mesh in = 17.08 s
After balancing shell refinement iteration 40 : cells:5144692  faces:15847880  points:5560612  unbalance:0.0099753299
Cells per refinement level:
    0	3583479
    1	2313
    2	6877
    3	27616
    4	157028
    5	143085
    6	378553
    7	845741

Shell refinement iteration 41
----------------------------

No cells marked for refinement since reached limit 4000000.
Determined cells to refine in = 0.76 s
Selected for internal refinement : 24 cells (out of 5144692)
Edge intersection testing:
    Number of edges             : 15848447
    Number of edges to retest   : 2305
    Number of intersected edges : 288547
Refined mesh in = 5.02 s
After refinement shell refinement iteration 41 : cells:5144860  faces:15848447  points:5560846  unbalance:0.0099423502
Cells per refinement level:
    0	3583477
    1	2319
    2	6952
    3	27655
    4	157032
    5	143115
    6	378569
    7	845741
Balancing since max unbalance 0.0099423502 is larger than allowable 0
Balanced mesh in = 15.72 s
After balancing shell refinement iteration 41 : cells:5144860  faces:15848447  points:5560850  unbalance:0.0092243521
Cells per refinement level:
    0	3583477
    1	2319
    2	6952
    3	27655
    4	157032
    5	143115
    6	378569
    7	845741

Shell refinement iteration 42
----------------------------

No cells marked for refinement since reached limit 4000000.
Determined cells to refine in = 0.72 s
Selected for internal refinement : 30 cells (out of 5144860)
Edge intersection testing:
    Number of edges             : 15849107
    Number of edges to retest   : 2932
    Number of intersected edges : 288547
Refined mesh in = 4.6 s
After refinement shell refinement iteration 42 : cells:5145070  faces:15849107  points:5561093  unbalance:0.0091831598
Cells per refinement level:
    0	3583471
    1	2362
    2	6984
    3	27714
    4	157069
    5	143136
    6	378593
    7	845741
Balancing since max unbalance 0.0091831598 is larger than allowable 0
Balanced mesh in = 17.71 s
After balancing shell refinement iteration 42 : cells:5145070  faces:15849107  points:5561101  unbalance:0.0095318431
Cells per refinement level:
    0	3583471
    1	2362
    2	6984
    3	27714
    4	157069
    5	143136
    6	378593
    7	845741

Shell refinement iteration 43
----------------------------

No cells marked for refinement since reached limit 4000000.
Determined cells to refine in = 0.77 s
Selected for internal refinement : 17 cells (out of 5145070)
Edge intersection testing:
    Number of edges             : 15849476
    Number of edges to retest   : 1778
    Number of intersected edges : 288547
Refined mesh in = 5.15 s
After refinement shell refinement iteration 43 : cells:5145189  faces:15849476  points:5561234  unbalance:0.0094812844
Cells per refinement level:
    0	3583470
    1	2368
    2	6994
    3	27758
    4	157098
    5	143159
    6	378601
    7	845741
Balancing since max unbalance 0.0094812844 is larger than allowable 0
Balanced mesh in = 17.69 s
After balancing shell refinement iteration 43 : cells:5145189  faces:15849476  points:5561246  unbalance:0.007973468
Cells per refinement level:
    0	3583470
    1	2368
    2	6994
    3	27758
    4	157098
    5	143159
    6	378601
    7	845741

Shell refinement iteration 44
----------------------------

No cells marked for refinement since reached limit 4000000.
Determined cells to refine in = 0.91 s
Selected for internal refinement : 25 cells (out of 5145189)
Edge intersection testing:
    Number of edges             : 15850016
    Number of edges to retest   : 2743
    Number of intersected edges : 288547
Refined mesh in = 5.01 s
After refinement shell refinement iteration 44 : cells:5145364  faces:15850016  points:5561434  unbalance:0.007876605
Cells per refinement level:
    0	3583470
    1	2367
    2	6997
    3	27782
    4	157225
    5	143165
    6	378617
    7	845741
Balancing since max unbalance 0.007876605 is larger than allowable 0
Balanced mesh in = 17.66 s
After balancing shell refinement iteration 44 : cells:5145364  faces:15850016  points:5561440  unbalance:0.0099973491
Cells per refinement level:
    0	3583470
    1	2367
    2	6997
    3	27782
    4	157225
    5	143165
    6	378617
    7	845741

Shell refinement iteration 45
----------------------------

No cells marked for refinement since reached limit 4000000.
Determined cells to refine in = 0.82 s
Selected for internal refinement : 22 cells (out of 5145364)
Edge intersection testing:
    Number of edges             : 15850520
    Number of edges to retest   : 2249
    Number of intersected edges : 288547
Refined mesh in = 5.13 s
After refinement shell refinement iteration 45 : cells:5145518  faces:15850520  points:5561635  unbalance:0.0099671209
Cells per refinement level:
    0	3583470
    1	2366
    2	7003
    3	27787
    4	157310
    5	143184
    6	378657
    7	845741
Balancing since max unbalance 0.0099671209 is larger than allowable 0
Balanced mesh in = 17 s
After balancing shell refinement iteration 45 : cells:5145518  faces:15850520  points:5561639  unbalance:0.0081340693
Cells per refinement level:
    0	3583470
    1	2366
    2	7003
    3	27787
    4	157310
    5	143184
    6	378657
    7	845741

Shell refinement iteration 46
----------------------------

No cells marked for refinement since reached limit 4000000.
Determined cells to refine in = 0.92 s
Selected for internal refinement : 16 cells (out of 5145518)
Edge intersection testing:
    Number of edges             : 15850868
    Number of edges to retest   : 1695
    Number of intersected edges : 288547
Refined mesh in = 5.18 s
After refinement shell refinement iteration 46 : cells:5145630  faces:15850868  points:5561758  unbalance:0.0081121262
Cells per refinement level:
    0	3583469
    1	2374
    2	6997
    3	27827
    4	157374
    5	143183
    6	378665
    7	845741
Balancing since max unbalance 0.0081121262 is larger than allowable 0
Balanced mesh in = 16.86 s
After balancing shell refinement iteration 46 : cells:5145630  faces:15850868  points:5561760  unbalance:0.0052471709
Cells per refinement level:
    0	3583469
    1	2374
    2	6997
    3	27827
    4	157374
    5	143183
    6	378665
    7	845741

Shell refinement iteration 47
----------------------------

No cells marked for refinement since reached limit 4000000.
Determined cells to refine in = 0.73 s
Selected for internal refinement : 12 cells (out of 5145630)
Edge intersection testing:
    Number of edges             : 15851114
    Number of edges to retest   : 1249
    Number of intersected edges : 288547
Refined mesh in = 4.85 s
After refinement shell refinement iteration 47 : cells:5145714  faces:15851114  points:5561838  unbalance:0.0052389231
Cells per refinement level:
    0	3583469
    1	2372
    2	7010
    3	27845
    4	157421
    5	143191
    6	378665
    7	845741
Balancing since max unbalance 0.0052389231 is larger than allowable 0
Balanced mesh in = 16.71 s
After balancing shell refinement iteration 47 : cells:5145714  faces:15851114  points:5561844  unbalance:0.0099997785
Cells per refinement level:
    0	3583469
    1	2372
    2	7010
    3	27845
    4	157421
    5	143191
    6	378665
    7	845741

Shell refinement iteration 48
----------------------------

No cells marked for refinement since reached limit 4000000.
Determined cells to refine in = 0.73 s
Selected for internal refinement : 8 cells (out of 5145714)
Stopping refining since too few cells selected.


Dangling coarse cells refinement iteration 0
--------------------------------------------

Determined cells to refine in = 0.07 s
Selected for refinement : 40 cells (out of 5145714)
Edge intersection testing:
    Number of edges             : 15851714
    Number of edges to retest   : 4763
    Number of intersected edges : 288547
Refined mesh in = 4.66 s
After refinement coarse cell refinement iteration 0 : cells:5145994  faces:15851714  points:5561924  unbalance:0.0099448231
Cells per refinement level:
    0	3583468
    1	2375
    2	7038
    3	27925
    4	157543
    5	143239
    6	378665
    7	845741
Balancing since max unbalance 0.0099448231 is larger than allowable 0
Balanced mesh in = 16.72 s
After balancing coarse cell refinement iteration 0 : cells:5145994  faces:15851714  points:5561925  unbalance:0.0070287684
Cells per refinement level:
    0	3583468
    1	2375
    2	7038
    3	27925
    4	157543
    5	143239
    6	378665
    7	845741

Dangling coarse cells refinement iteration 1
--------------------------------------------

Determined cells to refine in = 0.33 s
Selected for refinement : 0 cells (out of 5145994)
Stopping refining since too few cells selected.


Dangling coarse cells refinement iteration 0
--------------------------------------------

Determined cells to refine in = 0.06 s
Selected for refinement : 0 cells (out of 5145994)
Stopping refining since too few cells selected.


Refinement transition refinement iteration 0
--------------------------------------------

Determined cells to refine in = 0.06 s
Selected for refinement : 0 cells (out of 5145994)
Stopping refining since too few cells selected.


Splitting mesh at surface intersections
---------------------------------------

Introducing baffles for 288547 faces that are intersected by the surface.

Setting cellZones according to locationsInMesh:
Location : (-0.5 0 0.4)
    cellZone : none

For cellZone none found point (-0.5 0 0.4) in global region 0 out of 2 regions.
Edge intersection testing:
    Number of edges             : 16094063
    Number of edges to retest   : 1818101
    Number of intersected edges : 526673
Created baffles in = 5.02 s


After introducing baffles : cells:5145994  faces:16094063  points:5561925  unbalance:0.0070287684
Cells per refinement level:
    0	3583468
    1	2375
    2	7038
    3	27925
    4	157543
    5	143239
    6	378665
    7	845741

Introducing baffles to block off problem cells
----------------------------------------------

markFacesOnProblemCells : marked 207593 additional internal faces to be converted into baffles.
Analyzed problem cells in = 3.75 s


Introducing baffles to delete problem cells.

Edge intersection testing:
    Number of edges             : 16301568
    Number of edges to retest   : 712274
    Number of intersected edges : 526717
Created baffles in = 3.76 s


After introducing baffles : cells:5145994  faces:16301568  points:5562032  unbalance:0.0070287684
Cells per refinement level:
    0	3583468
    1	2375
    2	7038
    3	27925
    4	157543
    5	143239
    6	378665
    7	845741
Setting cellZones according to locationsInMesh:
Location : (-0.5 0 0.4)
    cellZone : none

For cellZone none found point (-0.5 0 0.4) in global region 0 out of 96911 regions.
Edge intersection testing:
    Number of edges             : 16301568
    Number of edges to retest   : 1958263
    Number of intersected edges : 526717

Remove unreachable sections of mesh
-----------------------------------

Keeping all cells containing points 1((-0.5 0 0.4))
Selected for keeping : 4646241 cells.
Edge intersection testing:
    Number of edges             : 14294463
    Number of edges to retest   : 0
    Number of intersected edges : 240537
Split mesh in = 10.26 s


After subsetting : cells:4646241  faces:14294463  points:5005035  unbalance:0.2262274
Cells per refinement level:
    0	3583468
    1	2375
    2	7038
    3	27869
    4	95825
    5	116247
    6	286170
    7	527249

Introducing zones for interfaces
--------------------------------

Setting cellZones according to locationsInMesh:
Location : (-0.5 0 0.4)
    cellZone : none

For cellZone none found point (-0.5 0 0.4) in global region 0 out of 1 regions.
Setting faceZones according to neighbouring cellZones:

Edge intersection testing:
    Number of edges             : 14294463
    Number of edges to retest   : 0
    Number of intersected edges : 240537

Handling cells with snap problems
---------------------------------

Introducing baffles for 240537 faces that are intersected by the surface.

Setting cellZones according to locationsInMesh:
Location : (-0.5 0 0.4)
    cellZone : none

For cellZone none found point (-0.5 0 0.4) in global region 0 out of 1 regions.
Edge intersection testing:
    Number of edges             : 14294463
    Number of edges to retest   : 821012
    Number of intersected edges : 240537
Created baffles in = 8.7 s


After introducing baffles : cells:4646241  faces:14294463  points:5005035  unbalance:0.2262274
Cells per refinement level:
    0	3583468
    1	2375
    2	7038
    3	27869
    4	95825
    5	116247
    6	286170
    7	527249

Introducing baffles to block off problem cells
----------------------------------------------

markFacesOnProblemCells : marked 0 additional internal faces to be converted into baffles.
Analyzed problem cells in = 3.01 s


Introducing baffles to delete problem cells.

Created baffles in = 0.31 s


After introducing baffles : cells:4646241  faces:14294463  points:5005035  unbalance:0.2262274
Cells per refinement level:
    0	3583468
    1	2375
    2	7038
    3	27869
    4	95825
    5	116247
    6	286170
    7	527249
Setting cellZones according to locationsInMesh:
Location : (-0.5 0 0.4)
    cellZone : none

For cellZone none found point (-0.5 0 0.4) in global region 0 out of 1 regions.
Edge intersection testing:
    Number of edges             : 14294463
    Number of edges to retest   : 821012
    Number of intersected edges : 240537

Remove unreachable sections of mesh
-----------------------------------

Split mesh in = 5.55 s


After subsetting : cells:4646241  faces:14294463  points:5005035  unbalance:0.2262274
Cells per refinement level:
    0	3583468
    1	2375
    2	7038
    3	27869
    4	95825
    5	116247
    6	286170
    7	527249

Merge free-standing baffles
---------------------------

freeStandingBaffles : detected 73 free-standing baffles out of 73

freeStandingBaffles : detected 0 planar (within 30 degrees) free-standing baffles out of 73

Detected free-standing baffles : 0
Merged free-standing baffles in = 1.02 s


dupNonManifoldPoints : Found : 73 non-manifold points (out of 5063404)
Edge intersection testing:
    Number of edges             : 14294463
    Number of edges to retest   : 0
    Number of intersected edges : 240537
Detected unsplittable baffles : 0

Merge refined boundary faces
----------------------------

Merging 1468 sets of faces.

Edge intersection testing:
    Number of edges             : 14291803
    Number of edges to retest   : 8604
    Number of intersected edges : 237828

Undo iteration 0
----------------
Checking faces in error :
    non-orthogonality > 75  degrees                        : 0
    faces with concavity > 80  degrees                     : 0
    faces with area < 1e-13 m^2                            : 0
    faces with skewness > 4   (internal) or 20  (boundary) : 0
    faces with interpolation weights (0..1)  < 0.02        : 0
    faces with volume ratio of neighbour cells < 0.01      : 0
    faces on cells with determinant < 0.001                : 0

Merging all points on surface that
- are used by only two boundary faces and
- make an angle with a cosine of more than 0.70710678.

Removing 1881 straight edge points ...

Edge intersection testing:
    Number of edges             : 14291803
    Number of edges to retest   : 8151
    Number of intersected edges : 237828

Undo iteration 0
----------------
Checking faces in error :
    non-orthogonality > 75  degrees                        : 0
    faces with concavity > 80  degrees                     : 0
    faces with area < 1e-13 m^2                            : 0
    faces with skewness > 4   (internal) or 20  (boundary) : 0
    faces with interpolation weights (0..1)  < 0.02        : 0
    faces with volume ratio of neighbour cells < 0.01      : 0
    faces on cells with determinant < 0.001                : 0

Doing final balancing
---------------------

Found 0 zoned faces to keep together.
Found 0 separated coupled faces to keep together.
Refined mesh : cells:4646241  faces:14291803  points:5002640  unbalance:0.0018033933
Cells per refinement level:
    0	3583468
    1	2375
    2	7038
    3	27869
    4	95825
    5	116247
    6	286170
    7	527249
Writing mesh to time constant
Wrote mesh in = 0.38 s.
Mesh refined in = 1366.36 s.

Morphing phase
--------------

Duplicating 0 points on faceZones of type boundary
Snapping to features in 15 iterations ...
Constructing mesh displacer ...
Using mesh parameters 
{
    maxNonOrtho     75;
    maxBoundarySkewness 20;
    maxInternalSkewness 4;
    maxConcave      80;
    minArea         1e-13;
    minVol          -1e+30;
    minTwist        -1e+30;
    minFaceWeight   0.02;
    minVolRatio     0.01;
    minTetQuality   -1e+30;
    errorReduction  0.5;
    nSmoothScale    10;
    minTriangleTwist -1e+30;
    minDeterminant  0.001;
}


Checking initial mesh ...
Checking faces in error :
    non-orthogonality > 75  degrees                        : 0
    faces with concavity > 80  degrees                     : 0
    faces with area < 1e-13 m^2                            : 0
    faces with skewness > 4   (internal) or 20  (boundary) : 0
    faces with interpolation weights (0..1)  < 0.02        : 0
    faces with volume ratio of neighbour cells < 0.01      : 0
    faces on cells with determinant < 0.001                : 0
Detected 0 illegal faces (concave, zero area or negative cell pyramid volume)
Checked initial mesh in = 31.66 s


Smoothing patch points ...
Smoothing iteration 0
Found 136 non-manifold point(s).

Scaling iteration 0
Moving mesh using displacement scaling : min:1  max:1
Checking faces in error :
    non-orthogonality > 75  degrees                        : 0
    faces with concavity > 80  degrees                     : 0
    faces with area < 1e-13 m^2                            : 0
    faces with skewness > 4   (internal) or 20  (boundary) : 0
    faces with interpolation weights (0..1)  < 0.02        : 0
    faces with volume ratio of neighbour cells < 0.01      : 0
    faces on cells with determinant < 0.001                : 0
Successfully moved mesh

Smoothing iteration 1
Found 0 non-manifold point(s).

Scaling iteration 0
Moving mesh using displacement scaling : min:1  max:1
Checking faces in error :
    non-orthogonality > 75  degrees                        : 0
    faces with concavity > 80  degrees                     : 0
    faces with area < 1e-13 m^2                            : 0
    faces with skewness > 4   (internal) or 20  (boundary) : 0
    faces with interpolation weights (0..1)  < 0.02        : 0
    faces with volume ratio of neighbour cells < 0.01      : 0
    faces on cells with determinant < 0.001                : 0
Successfully moved mesh

Smoothing iteration 2
Found 0 non-manifold point(s).

Scaling iteration 0
Moving mesh using displacement scaling : min:1  max:1
Checking faces in error :
    non-orthogonality > 75  degrees                        : 0
    faces with concavity > 80  degrees                     : 0
    faces with area < 1e-13 m^2                            : 0
    faces with skewness > 4   (internal) or 20  (boundary) : 0
    faces with interpolation weights (0..1)  < 0.02        : 0
    faces with volume ratio of neighbour cells < 0.01      : 0
    faces on cells with determinant < 0.001                : 0
Successfully moved mesh

Smoothing iteration 3
Found 0 non-manifold point(s).

Scaling iteration 0
Moving mesh using displacement scaling : min:1  max:1
Checking faces in error :
    non-orthogonality > 75  degrees                        : 0
    faces with concavity > 80  degrees                     : 0
    faces with area < 1e-13 m^2                            : 0
    faces with skewness > 4   (internal) or 20  (boundary) : 0
    faces with interpolation weights (0..1)  < 0.02        : 0
    faces with volume ratio of neighbour cells < 0.01      : 0
    faces on cells with determinant < 0.001                : 0
Successfully moved mesh

Smoothing iteration 4
Found 0 non-manifold point(s).

Scaling iteration 0
Moving mesh using displacement scaling : min:1  max:1
Checking faces in error :
    non-orthogonality > 75  degrees                        : 0
    faces with concavity > 80  degrees                     : 0
    faces with area < 1e-13 m^2                            : 0
    faces with skewness > 4   (internal) or 20  (boundary) : 0
    faces with interpolation weights (0..1)  < 0.02        : 0
    faces with volume ratio of neighbour cells < 0.01      : 0
    faces on cells with determinant < 0.001                : 0
Successfully moved mesh

Patch points smoothed in = 10.95 s



Morph iteration 0
-----------------
Calculating patchDisplacement as distance to nearest surface point ...
    non-zone points : attract to nearest of all non-zone surfaces
    zone points     : attract to zone surface only

Wanted displacement : average:2.4123936e-05 min:5.1801909e-16 max:0.00051576183
Calculated surface displacement in = 0.11 s


Detecting near surfaces ...
Overriding nearest with intersection of close gaps at 1 out of 243084 points.
Overriding displacement on features :
   implicit features    : false
   explicit features    : true
   multi-patch features : true

Detected 134 baffle edges out of 482806 edges.
Baffle points     : 201 of which attracted to :
    feature point : 0
    feature edge  : 198
    rest          : 3

--> FOAM Warning : 
    From Foam::treeBoundBox::treeBoundBox(const Foam::UList<Foam::Vector<double> >&)
    in file meshes/treeBoundBox/treeBoundBox.C at line 70
    No bounding box for zero-sized pointField
Initially selected 5466 mesh points out of 243084 for reverse attraction.
Selected 14897 mesh points out of 243084 for reverse attraction.
Stringing feature edges : changed 14 points
Stringing feature edges : changed 0 points
Attraction:
    linear   : max:(0.00038568567 0 -0.00034242786) avg:(-2.2088984e-06 -3.7200801e-07 -2.7082934e-06)
    feature  : max:(-0.00026379431 0.00023145587 -0.00068446129) avg:(1.1604576e-08 -4.8644635e-09 8.2259773e-09)
Feature analysis : total master points :242376 of which attracted to :
    feature point   : 5
    feature edge    : 2802
    nearest surface : 0
    rest            : 239569

Smoothing displacement ...
Iteration 0
Iteration 10
Iteration 20
Iteration 30
Iteration 40
Iteration 50
Iteration 60
Iteration 70
Iteration 80
Iteration 90
Displacement smoothed in = 17.73 s


Moving mesh ...

Iteration 0
Moving mesh using displacement scaling : min:1  max:1
Checking faces in error :
    non-orthogonality > 75  degrees                        : 0
    faces with concavity > 80  degrees                     : 0
    faces with area < 1e-13 m^2                            : 0
    faces with skewness > 4   (internal) or 20  (boundary) : 0
    faces with interpolation weights (0..1)  < 0.02        : 0
    faces with volume ratio of neighbour cells < 0.01      : 0
    faces on cells with determinant < 0.001                : 0
Successfully moved mesh
Moved mesh in = 1.79 s



Morph iteration 1
-----------------
Calculating patchDisplacement as distance to nearest surface point ...
    non-zone points : attract to nearest of all non-zone surfaces
    zone points     : attract to zone surface only

Wanted displacement : average:2.2617445e-05 min:4.8890964e-16 max:0.00049597392
Calculated surface displacement in = 0.12 s


Detecting near surfaces ...
Overriding nearest with intersection of close gaps at 1 out of 243084 points.
Overriding displacement on features :
   implicit features    : false
   explicit features    : true
   multi-patch features : true

Detected 134 baffle edges out of 482806 edges.
Baffle points     : 201 of which attracted to :
    feature point : 0
    feature edge  : 198
    rest          : 3

--> FOAM Warning : 
    From Foam::treeBoundBox::treeBoundBox(const Foam::UList<Foam::Vector<double> >&)
    in file meshes/treeBoundBox/treeBoundBox.C at line 70
    No bounding box for zero-sized pointField
Initially selected 5465 mesh points out of 243084 for reverse attraction.
Selected 14896 mesh points out of 243084 for reverse attraction.
Stringing feature edges : changed 14 points
Stringing feature edges : changed 0 points
Attraction:
    linear   : max:(0.0003708883 0 -0.00032929014) avg:(-2.0661211e-06 -3.4569985e-07 -2.5394887e-06)
    feature  : max:(-0.00026362986 0.00021652696 -0.00068231569) avg:(1.1821382e-08 -6.0467134e-09 8.2009777e-09)
Feature analysis : total master points :242376 of which attracted to :
    feature point   : 5
    feature edge    : 2804
    nearest surface : 0
    rest            : 239567

Smoothing displacement ...
Iteration 0
Iteration 10
Iteration 20
Iteration 30
Iteration 40
Iteration 50
Iteration 60
Iteration 70
Iteration 80
Iteration 90
Displacement smoothed in = 17.52 s


Moving mesh ...

Iteration 0
Moving mesh using displacement scaling : min:1  max:1
Checking faces in error :
    non-orthogonality > 75  degrees                        : 0
    faces with concavity > 80  degrees                     : 0
    faces with area < 1e-13 m^2                            : 0
    faces with skewness > 4   (internal) or 20  (boundary) : 0
    faces with interpolation weights (0..1)  < 0.02        : 0
    faces with volume ratio of neighbour cells < 0.01      : 0
    faces on cells with determinant < 0.001                : 0
Successfully moved mesh
Moved mesh in = 1.91 s



Morph iteration 2
-----------------
Calculating patchDisplacement as distance to nearest surface point ...
    non-zone points : attract to nearest of all non-zone surfaces
    zone points     : attract to zone surface only

Wanted displacement : average:1.9804346e-05 min:6.8686266e-16 max:0.00045627221
Calculated surface displacement in = 0.12 s


Detecting near surfaces ...
Overriding nearest with intersection of close gaps at 2 out of 243084 points.
Overriding displacement on features :
   implicit features    : false
   explicit features    : true
   multi-patch features : true

Detected 134 baffle edges out of 482806 edges.
[...]

Iteration 7
Moving mesh using displacement scaling : min:0.0078125  max:1
Checking faces in error :
    non-orthogonality > 75  degrees                        : 2
    faces with concavity > 80  degrees                     : 1
    faces with area < 1e-13 m^2                            : 0
    faces with skewness > 4   (internal) or 20  (boundary) : 0
    faces with interpolation weights (0..1)  < 0.02        : 0
    faces with volume ratio of neighbour cells < 0.01      : 0
    faces on cells with determinant < 0.001                : 0

Iteration 8
Moving mesh using displacement scaling : min:0.00390625  max:1
Checking faces in error :
    non-orthogonality > 75  degrees                        : 1
    faces with concavity > 80  degrees                     : 1
    faces with area < 1e-13 m^2                            : 0
    faces with skewness > 4   (internal) or 20  (boundary) : 0
    faces with interpolation weights (0..1)  < 0.02        : 0
    faces with volume ratio of neighbour cells < 0.01      : 0
    faces on cells with determinant < 0.001                : 0

Iteration 9
Moving mesh using displacement scaling : min:0.001953125  max:1
Checking faces in error :
    non-orthogonality > 75  degrees                        : 2
    faces with concavity > 80  degrees                     : 1
    faces with area < 1e-13 m^2                            : 0
    faces with skewness > 4   (internal) or 20  (boundary) : 0
    faces with interpolation weights (0..1)  < 0.02        : 0
    faces with volume ratio of neighbour cells < 0.01      : 0
    faces on cells with determinant < 0.001                : 0

Iteration 10
Moving mesh using displacement scaling : min:0.0009765625  max:1
Checking faces in error :
    non-orthogonality > 75  degrees                        : 1
    faces with concavity > 80  degrees                     : 1
    faces with area < 1e-13 m^2                            : 0
    faces with skewness > 4   (internal) or 20  (boundary) : 0
    faces with interpolation weights (0..1)  < 0.02        : 0
    faces with volume ratio of neighbour cells < 0.01      : 0
    faces on cells with determinant < 0.001                : 0

Iteration 11
Moving mesh using displacement scaling : min:0.00048828125  max:1
Checking faces in error :
    non-orthogonality > 75  degrees                        : 1
    faces with concavity > 80  degrees                     : 1
    faces with area < 1e-13 m^2                            : 0
    faces with skewness > 4   (internal) or 20  (boundary) : 0
    faces with interpolation weights (0..1)  < 0.02        : 0
    faces with volume ratio of neighbour cells < 0.01      : 0
    faces on cells with determinant < 0.001                : 0

Iteration 12
Moving mesh using displacement scaling : min:0.00024414062  max:1
Checking faces in error :
    non-orthogonality > 75  degrees                        : 1
    faces with concavity > 80  degrees                     : 0
    faces with area < 1e-13 m^2                            : 0
    faces with skewness > 4   (internal) or 20  (boundary) : 0
    faces with interpolation weights (0..1)  < 0.02        : 0
    faces with volume ratio of neighbour cells < 0.01      : 0
    faces on cells with determinant < 0.001                : 0

Iteration 13
Moving mesh using displacement scaling : min:0.00012207031  max:1
Checking faces in error :
    non-orthogonality > 75  degrees                        : 1
    faces with concavity > 80  degrees                     : 0
    faces with area < 1e-13 m^2                            : 0
    faces with skewness > 4   (internal) or 20  (boundary) : 0
    faces with interpolation weights (0..1)  < 0.02        : 0
    faces with volume ratio of neighbour cells < 0.01      : 0
    faces on cells with determinant < 0.001                : 0

Iteration 14
Moving mesh using displacement scaling : min:6.1035156e-05  max:1
Checking faces in error :
    non-orthogonality > 75  degrees                        : 1
    faces with concavity > 80  degrees                     : 0
    faces with area < 1e-13 m^2                            : 0
    faces with skewness > 4   (internal) or 20  (boundary) : 0
    faces with interpolation weights (0..1)  < 0.02        : 0
    faces with volume ratio of neighbour cells < 0.01      : 0
    faces on cells with determinant < 0.001                : 0

Iteration 15
Displacement scaling for error reduction set to 0.
Moving mesh using displacement scaling : min:3.0517578e-05  max:1
Checking faces in error :
    non-orthogonality > 75  degrees                        : 1
    faces with concavity > 80  degrees                     : 0
    faces with area < 1e-13 m^2                            : 0
    faces with skewness > 4   (internal) or 20  (boundary) : 0
    faces with interpolation weights (0..1)  < 0.02        : 0
    faces with volume ratio of neighbour cells < 0.01      : 0
    faces on cells with determinant < 0.001                : 0

Iteration 16
Moving mesh using displacement scaling : min:0  max:1
Checking faces in error :
    non-orthogonality > 75  degrees                        : 0
    faces with concavity > 80  degrees                     : 0
    faces with area < 1e-13 m^2                            : 0
    faces with skewness > 4   (internal) or 20  (boundary) : 0
    faces with interpolation weights (0..1)  < 0.02        : 0
    faces with volume ratio of neighbour cells < 0.01      : 0
    faces on cells with determinant < 0.001                : 0
Successfully moved mesh
Moved mesh in = 34.56 s



Morph iteration 14
-----------------
Calculating patchDisplacement as distance to nearest surface point ...
    non-zone points : attract to nearest of all non-zone surfaces
    zone points     : attract to zone surface only

Wanted displacement : average:6.9940238e-09 min:4.057209e-16 max:0.00010783886
Calculated surface displacement in = 0.19 s


Detecting near surfaces ...
Overriding nearest with intersection of close gaps at 2 out of 243084 points.
Overriding displacement on features :
   implicit features    : false
   explicit features    : true
   multi-patch features : true

Detected 132 baffle edges out of 482806 edges.
Baffle points     : 198 of which attracted to :
    feature point : 0
    feature edge  : 198
    rest          : 0

--> FOAM Warning : 
    From Foam::treeBoundBox::treeBoundBox(const Foam::UList<Foam::Vector<double> >&)
    in file meshes/treeBoundBox/treeBoundBox.C at line 70
    No bounding box for zero-sized pointField
Initially selected 5482 mesh points out of 243084 for reverse attraction.
Selected 14893 mesh points out of 243084 for reverse attraction.
Stringing feature edges : changed 4 points
Stringing feature edges : changed 0 points
Attraction:
    linear   : max:(-7.0213147e-06 0.00010742932 6.2339156e-06) avg:(-2.6912604e-10 1.7082634e-09 2.6706621e-10)
    feature  : max:(1.361055e-05 -9.0845207e-07 -0) avg:(1.331109e-10 -5.0049902e-11 2.8713791e-11)
Feature analysis : total master points :242376 of which attracted to :
    feature point   : 4
    feature edge    : 2820
    nearest surface : 0
    rest            : 239552

Smoothing displacement ...
Iteration 0
Iteration 10
Iteration 20
Iteration 30
Iteration 40
Iteration 50
Iteration 60
Iteration 70
Iteration 80
Iteration 90
Displacement smoothed in = 17.05 s


Moving mesh ...

Iteration 0
Moving mesh using displacement scaling : min:1  max:1
Checking faces in error :
    non-orthogonality > 75  degrees                        : 5
    faces with concavity > 80  degrees                     : 2
    faces with area < 1e-13 m^2                            : 0
    faces with skewness > 4   (internal) or 20  (boundary) : 0
    faces with interpolation weights (0..1)  < 0.02        : 0
    faces with volume ratio of neighbour cells < 0.01      : 0
    faces on cells with determinant < 0.001                : 0

Iteration 1
Moving mesh using displacement scaling : min:0.5  max:1
Checking faces in error :
    non-orthogonality > 75  degrees                        : 4
    faces with concavity > 80  degrees                     : 2
    faces with area < 1e-13 m^2                            : 0
    faces with skewness > 4   (internal) or 20  (boundary) : 0
    faces with interpolation weights (0..1)  < 0.02        : 0
    faces with volume ratio of neighbour cells < 0.01      : 0
    faces on cells with determinant < 0.001                : 0

Iteration 2
Moving mesh using displacement scaling : min:0.25  max:1
Checking faces in error :
    non-orthogonality > 75  degrees                        : 5
    faces with concavity > 80  degrees                     : 2
    faces with area < 1e-13 m^2                            : 0
    faces with skewness > 4   (internal) or 20  (boundary) : 0
    faces with interpolation weights (0..1)  < 0.02        : 0
    faces with volume ratio of neighbour cells < 0.01      : 0
    faces on cells with determinant < 0.001                : 0

Iteration 3
Moving mesh using displacement scaling : min:0.125  max:1
Checking faces in error :
    non-orthogonality > 75  degrees                        : 4
    faces with concavity > 80  degrees                     : 2
    faces with area < 1e-13 m^2                            : 0
    faces with skewness > 4   (internal) or 20  (boundary) : 0
    faces with interpolation weights (0..1)  < 0.02        : 0
    faces with volume ratio of neighbour cells < 0.01      : 0
    faces on cells with determinant < 0.001                : 0

Iteration 4
Moving mesh using displacement scaling : min:0.0625  max:1
Checking faces in error :
    non-orthogonality > 75  degrees                        : 4
    faces with concavity > 80  degrees                     : 2
    faces with area < 1e-13 m^2                            : 0
    faces with skewness > 4   (internal) or 20  (boundary) : 0
    faces with interpolation weights (0..1)  < 0.02        : 0
    faces with volume ratio of neighbour cells < 0.01      : 0
    faces on cells with determinant < 0.001                : 0

Iteration 5
Moving mesh using displacement scaling : min:0.03125  max:1
Checking faces in error :
    non-orthogonality > 75  degrees                        : 3
    faces with concavity > 80  degrees                     : 2
    faces with area < 1e-13 m^2                            : 0
    faces with skewness > 4   (internal) or 20  (boundary) : 0
    faces with interpolation weights (0..1)  < 0.02        : 0
    faces with volume ratio of neighbour cells < 0.01      : 0
    faces on cells with determinant < 0.001                : 0

Iteration 6
Moving mesh using displacement scaling : min:0.015625  max:1
Checking faces in error :
    non-orthogonality > 75  degrees                        : 2
    faces with concavity > 80  degrees                     : 1
    faces with area < 1e-13 m^2                            : 0
    faces with skewness > 4   (internal) or 20  (boundary) : 0
    faces with interpolation weights (0..1)  < 0.02        : 0
    faces with volume ratio of neighbour cells < 0.01      : 0
    faces on cells with determinant < 0.001                : 0

Iteration 7
Moving mesh using displacement scaling : min:0.0078125  max:1
Checking faces in error :
    non-orthogonality > 75  degrees                        : 2
    faces with concavity > 80  degrees                     : 1
    faces with area < 1e-13 m^2                            : 0
    faces with skewness > 4   (internal) or 20  (boundary) : 0
    faces with interpolation weights (0..1)  < 0.02        : 0
    faces with volume ratio of neighbour cells < 0.01      : 0
    faces on cells with determinant < 0.001                : 0

Iteration 8
Moving mesh using displacement scaling : min:0.00390625  max:1
Checking faces in error :
    non-orthogonality > 75  degrees                        : 2
    faces with concavity > 80  degrees                     : 1
    faces with area < 1e-13 m^2                            : 0
    faces with skewness > 4   (internal) or 20  (boundary) : 0
    faces with interpolation weights (0..1)  < 0.02        : 0
    faces with volume ratio of neighbour cells < 0.01      : 0
    faces on cells with determinant < 0.001                : 0

Iteration 9
Moving mesh using displacement scaling : min:0.001953125  max:1
Checking faces in error :
    non-orthogonality > 75  degrees                        : 2
    faces with concavity > 80  degrees                     : 1
    faces with area < 1e-13 m^2                            : 0
    faces with skewness > 4   (internal) or 20  (boundary) : 0
    faces with interpolation weights (0..1)  < 0.02        : 0
    faces with volume ratio of neighbour cells < 0.01      : 0
    faces on cells with determinant < 0.001                : 0

Iteration 10
Moving mesh using displacement scaling : min:0.0009765625  max:1
Checking faces in error :
    non-orthogonality > 75  degrees                        : 2
    faces with concavity > 80  degrees                     : 1
    faces with area < 1e-13 m^2                            : 0
    faces with skewness > 4   (internal) or 20  (boundary) : 0
    faces with interpolation weights (0..1)  < 0.02        : 0
    faces with volume ratio of neighbour cells < 0.01      : 0
    faces on cells with determinant < 0.001                : 0

Iteration 11
Moving mesh using displacement scaling : min:0.00048828125  max:1
Checking faces in error :
    non-orthogonality > 75  degrees                        : 2
    faces with concavity > 80  degrees                     : 1
    faces with area < 1e-13 m^2                            : 0
    faces with skewness > 4   (internal) or 20  (boundary) : 0
    faces with interpolation weights (0..1)  < 0.02        : 0
    faces with volume ratio of neighbour cells < 0.01      : 0
    faces on cells with determinant < 0.001                : 0

Iteration 12
Moving mesh using displacement scaling : min:0.00024414062  max:1
Checking faces in error :
    non-orthogonality > 75  degrees                        : 2
    faces with concavity > 80  degrees                     : 1
    faces with area < 1e-13 m^2                            : 0
    faces with skewness > 4   (internal) or 20  (boundary) : 0
    faces with interpolation weights (0..1)  < 0.02        : 0
    faces with volume ratio of neighbour cells < 0.01      : 0
    faces on cells with determinant < 0.001                : 0

Iteration 13
Moving mesh using displacement scaling : min:0.00012207031  max:1
Checking faces in error :
    non-orthogonality > 75  degrees                        : 2
    faces with concavity > 80  degrees                     : 1
    faces with area < 1e-13 m^2                            : 0
    faces with skewness > 4   (internal) or 20  (boundary) : 0
    faces with interpolation weights (0..1)  < 0.02        : 0
    faces with volume ratio of neighbour cells < 0.01      : 0
    faces on cells with determinant < 0.001                : 0

Iteration 14
Moving mesh using displacement scaling : min:6.1035156e-05  max:1
Checking faces in error :
    non-orthogonality > 75  degrees                        : 2
    faces with concavity > 80  degrees                     : 1
    faces with area < 1e-13 m^2                            : 0
    faces with skewness > 4   (internal) or 20  (boundary) : 0
    faces with interpolation weights (0..1)  < 0.02        : 0
    faces with volume ratio of neighbour cells < 0.01      : 0
    faces on cells with determinant < 0.001                : 0

Iteration 15
Displacement scaling for error reduction set to 0.
Moving mesh using displacement scaling : min:3.0517578e-05  max:1
Checking faces in error :
    non-orthogonality > 75  degrees                        : 2
    faces with concavity > 80  degrees                     : 1
    faces with area < 1e-13 m^2                            : 0
    faces with skewness > 4   (internal) or 20  (boundary) : 0
    faces with interpolation weights (0..1)  < 0.02        : 0
    faces with volume ratio of neighbour cells < 0.01      : 0
    faces on cells with determinant < 0.001                : 0

Iteration 16
Moving mesh using displacement scaling : min:0  max:1
Checking faces in error :
    non-orthogonality > 75  degrees                        : 0
    faces with concavity > 80  degrees                     : 0
    faces with area < 1e-13 m^2                            : 0
    faces with skewness > 4   (internal) or 20  (boundary) : 0
    faces with interpolation weights (0..1)  < 0.02        : 0
    faces with volume ratio of neighbour cells < 0.01      : 0
    faces on cells with determinant < 0.001                : 0
Successfully moved mesh
Moved mesh in = 34.7 s


Repatching faces according to nearest surface ...
Repatched 0 faces in = 0.86 s


Edge intersection testing:
    Number of edges             : 14291803
    Number of edges to retest   : 1819208
    Number of intersected edges : 239657
Merging 33806 sets of faces.

Edge intersection testing:
    Number of edges             : 14242419
    Number of edges to retest   : 137012
    Number of intersected edges : 190360

Undo iteration 0
----------------
Checking faces in error :
    non-orthogonality > 75  degrees                        : 2
    faces with concavity > 80  degrees                     : 0
    faces with area < 1e-13 m^2                            : 0
    faces with skewness > 4   (internal) or 20  (boundary) : 0
    faces with interpolation weights (0..1)  < 0.02        : 0
    faces with volume ratio of neighbour cells < 0.01      : 0
    faces on cells with determinant < 0.001                : 0
Masters that need to be restored:4
Edge intersection testing:
    Number of edges             : 14242426
    Number of edges to retest   : 33
    Number of intersected edges : 190367


Undo iteration 1
----------------
Checking faces in error :
    non-orthogonality > 75  degrees                        : 0
    faces with concavity > 80  degrees                     : 0
    faces with area < 1e-13 m^2                            : 0
    faces with skewness > 4   (internal) or 20  (boundary) : 0
    faces with interpolation weights (0..1)  < 0.02        : 0
    faces with volume ratio of neighbour cells < 0.01      : 0
    faces on cells with determinant < 0.001                : 0

Merging all points on surface that
- are used by only two boundary faces and
- make an angle with a cosine of more than 0.8660254.

Removing 18311 straight edge points ...

Edge intersection testing:
    Number of edges             : 14242426
    Number of edges to retest   : 81251
    Number of intersected edges : 190408

Undo iteration 0
----------------
Checking faces in error :
    non-orthogonality > 75  degrees                        : 0
    faces with concavity > 80  degrees                     : 0
    faces with area < 1e-13 m^2                            : 0
    faces with skewness > 4   (internal) or 20  (boundary) : 0
    faces with interpolation weights (0..1)  < 0.02        : 0
    faces with volume ratio of neighbour cells < 0.01      : 0
    faces on cells with determinant < 0.001                : 0
Snapped mesh : cells:4646241  faces:14242426  points:4968921  unbalance:0.0018033933
Cells per refinement level:
    0	3583468
    1	2375
    2	7038
    3	27869
    4	95825
    5	116247
    6	286170
    7	527249
Writing mesh to time constant
Wrote mesh in = 0.37 s.
Mesh snapped in = 632.11 s.
Checking final mesh ...
Checking faces in error :
    non-orthogonality > 75  degrees                        : 0
    faces with concavity > 80  degrees                     : 0
    faces with area < 1e-13 m^2                            : 0
    faces with skewness > 4   (internal) or 20  (boundary) : 0
    faces with interpolation weights (0..1)  < 0.02        : 0
    faces with volume ratio of neighbour cells < 0.01      : 0
    faces on cells with determinant < 0.001                : 0
Finished meshing without any errors
Finished meshing in = 2003.23 s.
End

Finalising parallel run
