/*---------------------------------------------------------------------------*\
| =========                 |                                                 |
| \\      /  F ield         | OpenFOAM: The Open Source CFD Toolbox           |
|  \\    /   O peration     | Version:  2412                                  |
|   \\  /    A nd           | Website:  www.openfoam.com                      |
|    \\/     M anipulation  |                                                 |
\*---------------------------------------------------------------------------*/
Build  : _e5c6ccc3-20250814 OPENFOAM=2412 patch=250814 version=2412
Arch   : "LSB;label=32;scalar=64"
Exec   : rhoSimpleFoam -parallel
Date   : Jan 26 2026
Time   : 05:49:29
Host   : Albert
PID    : 452636
I/O    : uncollated
Case   : /home/shafa/controlSurfaces/Blunt_Fin
nProcs : 6
Hosts  :
(
    (Albert 6)
)
Pstream initialized with:
    floatTransfer      : false
    maxCommsSize       : 0
    nProcsSimpleSum    : 0
    nonBlockingExchange: 0 (tuning: 0)
    exchange algorithm : 0
    commsType          : nonBlocking
    polling iterations : 0
trapFpe: Floating point exception trapping enabled (FOAM_SIGFPE).
fileModificationChecking : Monitoring run-time modified files using timeStampMaster (fileModificationSkew 5, maxFileModificationPolls 20)
allowSystemOperations : Allowing user-supplied system call operations

// * * * * * * * * * * * * * * * * * * * * * * * * * * * * * * * * * * * * * //
Create time

--> FOAM Warning : 
    From virtual void Foam::Time::readDict()
    in file db/Time/TimeIO.C at line 403
    Reading "system/controlDict" at line 17 to 103
    Disabled output compression for non-ascii format (inefficient/ineffective)
Create mesh for time = 0


SIMPLE: convergence criteria
    field p	 tolerance 0.0001
    field U	 tolerance 0.0001
    field h	 tolerance 0.0001
    field nuTilda	 tolerance 0.0001

Reading thermophysical properties

Selecting thermodynamics package 
{
    type            hePsiThermo;
    mixture         pureMixture;
    transport       sutherland;
    thermo          hConst;
    equationOfState perfectGas;
    specie          specie;
    energy          sensibleEnthalpy;
}

Reading field U

Reading/calculating face flux field phi

Creating turbulence model

Selecting turbulence model type RAS
Selecting RAS turbulence model SpalartAllmaras
Selecting patchDistMethod meshWave
ft2 term: inactive
RAS
{
    RASModel        SpalartAllmaras;
    turbulence      on;
    printCoeffs     on;
    sigmaNut        0.66666;
    kappa           0.41;
    Cb1             0.1355;
    Cb2             0.622;
    Cw2             0.3;
    Cw3             2;
    Cv1             7.1;
    Cs              0.3;
    ck              0.07;
    ft2             false;
    Ct3             1.2;
    Ct4             0.5;
}

No MRF models present

No finite volume options present

Starting time loop

forceCoeffs forceCoeffs:
    rho: rho
    Not including porosity effects
    magUInf: 236.6
    lRef   : 0.1033
    Aref   : 0.00678
    rhoInf : 1.154
    Selecting all coefficients
    - Drag force: Cd
    - Drag force front: Cd(f)
    - Drag force rear: Cd(r)
    - Lift force: Cl
    - Lift force front: Cl(f)
    - Lift force rear: Cl(r)
    - Pitch moment: CmPitch
    - Roll moment: CmRoll
    - Yaw moment: CmYaw
    - Side force: Cs
    - Side force front: Cs(f)
    - Side force rear: Cs(r)


Time = 1

DILUPBiCGStab:  Solving for Ux, Initial residual = 0.99911491, Final residual = 0.025333429, No Iterations 2
DILUPBiCGStab:  Solving for Uy, Initial residual = 1, Final residual = 0.072461606, No Iterations 1
DILUPBiCGStab:  Solving for Uz, Initial residual = 1, Final residual = 0.084737932, No Iterations 2
DILUPBiCGStab:  Solving for h, Initial residual = 0.99998908, Final residual = 0.036363502, No Iterations 1
GAMG:  Solving for p, Initial residual = 1, Final residual = 0.0091596751, No Iterations 13
GAMG:  Solving for p, Initial residual = 0.0072456181, Final residual = 4.7697487e-05, No Iterations 4
GAMG:  Solving for p, Initial residual = 0.0019892777, Final residual = 1.2550729e-05, No Iterations 5
time step continuity errors : sum local = 0.00012831793, global = -1.0245957e-06, cumulative = -1.0245957e-06
DILUPBiCGStab:  Solving for nuTilda, Initial residual = 0.99999982, Final residual = 0.003890127, No Iterations 1
ExecutionTime = 15.64 s  ClockTime = 16 s

--> FOAM Warning : 
    From virtual bool Foam::functionObjects::fieldSelection::checkSelection()
    in file functionObjects/fieldSelections/fieldSelection/fieldSelection.C at line 179
    Field nut not found
--> FOAM Warning : 
    From virtual bool Foam::functionObjects::fieldSelection::checkSelection()
    in file functionObjects/fieldSelections/fieldSelection/fieldSelection.C at line 179
    Field alphat not found
--> FOAM Warning : 
    From virtual bool Foam::functionObjects::fieldSelection::checkSelection()
    in file functionObjects/fieldSelections/fieldSelection/fieldSelection.C at line 179
    Field T not found
--> FOAM Warning : 
    From virtual bool Foam::functionObjects::solverFieldSelection::updateSelection()
    in file functionObjects/fieldSelections/solverFieldSelection/solverFieldSelection.C at line 82
    Valid solver fields are: 4(U h nuTilda p)forceCoeffs forceCoeffs write:
    Coefficient	Total	Pressure	Viscous	Internal
    Cd:	0.12455556	0.12101922	0.003536338	0
    Cd(f):	0.065236983	0.063469428	0.0017675545	0
    Cd(r):	0.059318577	0.057549794	0.0017687835	0
    Cl:	-7.5842333e-05	-7.7994921e-05	2.152588e-06	0
    Cl(f):	-0.0020765496	-0.0020265923	-4.9957298e-05	0
    Cl(r):	0.0020007073	0.0019485974	5.2109886e-05	0
    CmPitch:	-0.0020386285	-0.0019875949	-5.1033592e-05	0
    CmRoll:	0.0029592029	0.0029598174	-6.1446532e-07	0
    CmYaw:	0.0073555227	0.0063749196	0.00098060307	0
    Cs:	0.20723599	0.20723214	3.8486466e-06	0
    Cs(f):	0.11097352	0.10999099	0.00098252739	0
    Cs(r):	0.096262474	0.097241152	-0.00097867874	0

    writing force and moment coefficient files.

Time = 2

DILUPBiCGStab:  Solving for Ux, Initial residual = 0.0014876853, Final residual = 9.7562849e-06, No Iterations 1
DILUPBiCGStab:  Solving for Uy, Initial residual = 0.027281756, Final residual = 0.00017026927, No Iterations 1
DILUPBiCGStab:  Solving for Uz, Initial residual = 0.014694242, Final residual = 9.6250573e-05, No Iterations 1
DILUPBiCGStab:  Solving for h, Initial residual = 0.0017859461, Final residual = 0.00017690979, No Iterations 1
GAMG:  Solving for p, Initial residual = 0.018923922, Final residual = 0.0001184452, No Iterations 12
GAMG:  Solving for p, Initial residual = 0.0044023774, Final residual = 3.3220091e-05, No Iterations 4
GAMG:  Solving for p, Initial residual = 0.0012604711, Final residual = 1.2468368e-05, No Iterations 5
time step continuity errors : sum local = 0.00011886515, global = -9.6267424e-06, cumulative = -1.0651338e-05
DILUPBiCGStab:  Solving for nuTilda, Initial residual = 8.2524058e-05, Final residual = 4.6001744e-07, No Iterations 1
ExecutionTime = 26.29 s  ClockTime = 26 s

forceCoeffs forceCoeffs write:
    Coefficient	Total	Pressure	Viscous	Internal
    Cd:	0.23446359	0.23097082	0.0034927731	0
    Cd(f):	0.12043228	0.11868737	0.0017449101	0
    Cd(r):	0.11403131	0.11228345	0.001747863	0
    Cl:	-3.2472074e-05	-3.7638108e-05	5.1660335e-06	0
    Cl(f):	-0.0037490675	-0.0037022861	-4.6781422e-05	0
    Cl(r):	0.0037165954	0.003664648	5.1947456e-05	0
    CmPitch:	-0.0037328315	-0.003683467	-4.9364439e-05	0
    CmRoll:	0.0032004872	0.0032019636	-1.4764161e-06	0
    CmYaw:	0.016608539	0.015637584	0.00097095513	0
    Cs:	0.22601912	0.22602035	-1.2292715e-06	0
    Cs(f):	0.1296181	0.12864776	0.00097034049	0
    Cs(r):	0.09640102	0.09737259	-0.00097156976	0

    writing force and moment coefficient files.

Time = 3

DILUPBiCGStab:  Solving for Ux, Initial residual = 0.0012297689, Final residual = 8.2972672e-06, No Iterations 1
DILUPBiCGStab:  Solving for Uy, Initial residual = 0.023952892, Final residual = 0.00015676399, No Iterations 1
DILUPBiCGStab:  Solving for Uz, Initial residual = 0.0058088163, Final residual = 4.0792897e-05, No Iterations 1
DILUPBiCGStab:  Solving for h, Initial residual = 0.0045261149, Final residual = 3.7443118e-05, No Iterations 1
GAMG:  Solving for p, Initial residual = 0.016002378, Final residual = 0.00014480689, No Iterations 9
GAMG:  Solving for p, Initial residual = 0.0049078999, Final residual = 3.3441513e-05, No Iterations 8
GAMG:  Solving for p, Initial residual = 0.0015134732, Final residual = 1.1293467e-05, No Iterations 4
time step continuity errors : sum local = 5.5090473e-05, global = -4.8477236e-06, cumulative = -1.5499062e-05
DILUPBiCGStab:  Solving for nuTilda, Initial residual = 5.4225321e-05, Final residual = 3.8845253e-07, No Iterations 1
ExecutionTime = 36.92 s  ClockTime = 37 s

forceCoeffs forceCoeffs write:
    Coefficient	Total	Pressure	Viscous	Internal
    Cd:	0.2356074	0.23218448	0.0034229168	0
    Cd(f):	0.1210311	0.11932212	0.0017089858	0
    Cd(r):	0.1145763	0.11286237	0.0017139309	0
    Cl:	0.00018621236	0.00017748371	8.7286471e-06	0
    Cl(f):	-0.003482516	-0.0034387248	-4.3791197e-05	0
    Cl(r):	0.0036687283	0.0036162085	5.2519844e-05	0
    CmPitch:	-0.0035756221	-0.0035274666	-4.815552e-05	0
    CmRoll:	0.003227403	0.0032298756	-2.4725625e-06	0
    CmYaw:	0.013869426	0.01291151	0.00095791583	0
    Cs:	0.23237358	0.23237464	-1.0575925e-06	0
    Cs(f):	0.13005622	0.12909883	0.00095738703	0
    Cs(r):	0.10231737	0.10327581	-0.00095844462	0

    writing force and moment coefficient files.

Time = 4

DILUPBiCGStab:  Solving for Ux, Initial residual = 0.00070039232, Final residual = 5.1412233e-06, No Iterations 1
DILUPBiCGStab:  Solving for Uy, Initial residual = 0.016247645, Final residual = 0.00010688544, No Iterations 1
DILUPBiCGStab:  Solving for Uz, Initial residual = 0.003380835, Final residual = 2.5179452e-05, No Iterations 1
DILUPBiCGStab:  Solving for h, Initial residual = 0.011391744, Final residual = 8.8888553e-05, No Iterations 1
GAMG:  Solving for p, Initial residual = 0.020582887, Final residual = 0.000138701, No Iterations 11
GAMG:  Solving for p, Initial residual = 0.016354569, Final residual = 0.00016279972, No Iterations 4
GAMG:  Solving for p, Initial residual = 0.0045546488, Final residual = 2.2941026e-05, No Iterations 8
time step continuity errors : sum local = 5.2198316e-05, global = -1.2226559e-05, cumulative = -2.7725621e-05
DILUPBiCGStab:  Solving for nuTilda, Initial residual = 5.3614002e-05, Final residual = 4.5074339e-07, No Iterations 1
ExecutionTime = 47.91 s  ClockTime = 48 s

forceCoeffs forceCoeffs write:
    Coefficient	Total	Pressure	Viscous	Internal
    Cd:	0.16607057	0.16272405	0.0033465193	0
    Cd(f):	0.086027283	0.084357123	0.0016701601	0
    Cd(r):	0.080043287	0.078366928	0.0016763592	0
    Cl:	0.00061484408	0.00060403629	1.0807791e-05	0
    Cl(f):	-0.001920582	-0.0018789075	-4.1674412e-05	0
    Cl(r):	0.002535426	0.0024829438	5.2482203e-05	0
    CmPitch:	-0.002228004	-0.0021809257	-4.7078307e-05	0
    CmRoll:	0.0029919978	0.0029950974	-3.0995778e-06	0
    CmYaw:	0.0044957053	0.0035498454	0.0009458599	0
    Cs:	0.22494171	0.22494707	-5.3580879e-06	0
    Cs(f):	0.11696656	0.11602338	0.00094318085	0
    Cs(r):	0.10797515	0.10892369	-0.00094853894	0

    writing force and moment coefficient files.

Time = 5

DILUPBiCGStab:  Solving for Ux, Initial residual = 0.00043042883, Final residual = 3.4932814e-06, No Iterations 1
DILUPBiCGStab:  Solving for Uy, Initial residual = 0.0074017015, Final residual = 4.748362e-05, No Iterations 1
DILUPBiCGStab:  Solving for Uz, Initial residual = 0.0013729982, Final residual = 1.0910311e-05, No Iterations 1
DILUPBiCGStab:  Solving for h, Initial residual = 0.025654657, Final residual = 0.0001912982, No Iterations 1
GAMG:  Solving for p, Initial residual = 0.02267789, Final residual = 0.00016446802, No Iterations 11
GAMG:  Solving for p, Initial residual = 0.046853596, Final residual = 0.00044354196, No Iterations 4
GAMG:  Solving for p, Initial residual = 0.013994588, Final residual = 0.000121393, No Iterations 8
time step continuity errors : sum local = 0.00011675749, global = 9.7243734e-06, cumulative = -1.8001248e-05
DILUPBiCGStab:  Solving for nuTilda, Initial residual = 5.6522812e-05, Final residual = 5.0683554e-07, No Iterations 1
ExecutionTime = 58.91 s  ClockTime = 59 s

forceCoeffs forceCoeffs write:
    Coefficient	Total	Pressure	Viscous	Internal
    Cd:	0.069216093	0.065943257	0.003272836	0
    Cd(f):	0.037262886	0.03562984	0.0016330464	0
    Cd(r):	0.031953206	0.030313417	0.0016397896	0
    Cl:	0.0010354531	0.0010242099	1.1243239e-05	0
    Cl(f):	6.6690598e-05	0.00010742973	-4.0739135e-05	0
    Cl(r):	0.0009687625	0.00091678013	5.1982374e-05	0
    CmPitch:	-0.00045103595	-0.0004046752	-4.6360754e-05	0
    CmRoll:	0.0026548401	0.0026582116	-3.3715699e-06	0
    CmYaw:	-0.0065741123	-0.0075103876	0.00093627527	0
    Cs:	0.20985799	0.209875	-1.7007477e-05	0
    Cs(f):	0.098354882	0.09742711	0.00092777154	0
    Cs(r):	0.11150311	0.11244789	-0.00094477901	0

    writing force and moment coefficient files.

Time = 6

DILUPBiCGStab:  Solving for Ux, Initial residual = 0.00031064146, Final residual = 1.7686358e-06, No Iterations 1
DILUPBiCGStab:  Solving for Uy, Initial residual = 0.0034909163, Final residual = 2.5231168e-05, No Iterations 1
DILUPBiCGStab:  Solving for Uz, Initial residual = 0.0003429799, Final residual = 2.4518092e-06, No Iterations 1
DILUPBiCGStab:  Solving for h, Initial residual = 0.0068165763, Final residual = 5.7041403e-05, No Iterations 1
GAMG:  Solving for p, Initial residual = 0.020886471, Final residual = 0.00014062117, No Iterations 11
GAMG:  Solving for p, Initial residual = 0.14428014, Final residual = 0.0012129514, No Iterations 4
GAMG:  Solving for p, Initial residual = 0.039737779, Final residual = 0.00035116544, No Iterations 8
time step continuity errors : sum local = 9.9716177e-05, global = -6.6822319e-06, cumulative = -2.468348e-05
DILUPBiCGStab:  Solving for nuTilda, Initial residual = 5.9314535e-05, Final residual = 5.4090722e-07, No Iterations 1
ExecutionTime = 69.93 s  ClockTime = 70 s

forceCoeffs forceCoeffs write:
    Coefficient	Total	Pressure	Viscous	Internal
    Cd:	-0.01641759	-0.019627586	0.0032099961	0
    Cd(f):	-0.005822373	-0.0074243417	0.0016019687	0
    Cd(r):	-0.010595217	-0.012203244	0.0016080274	0
    Cl:	0.0012646643	0.0012554004	9.2639843e-06	0
    Cl(f):	0.0016797699	0.0017204904	-4.072056e-05	0
    Cl(r):	-0.00041510554	-0.00046509008	4.9984544e-05	0
    CmPitch:	0.0010474377	0.0010927903	-4.5352552e-05	0
    CmRoll:	0.0023864219	0.0023894512	-3.0293307e-06	0
    CmYaw:	-0.014997358	-0.015927844	0.00093048662	0
    Cs:	0.19397771	0.19401504	-3.7324771e-05	0
    Cs(f):	0.081991499	0.081079675	0.00091182423	0
    Cs(r):	0.11198621	0.11293536	-0.00094914901	0

    writing force and moment coefficient files.

Time = 7

DILUPBiCGStab:  Solving for Ux, Initial residual = 0.00032328807, Final residual = 2.4738862e-05, No Iterations 1
DILUPBiCGStab:  Solving for Uy, Initial residual = 0.01209472, Final residual = 8.4248791e-05, No Iterations 1
DILUPBiCGStab:  Solving for Uz, Initial residual = 0.00051774414, Final residual = 3.4529879e-06, No Iterations 1
DILUPBiCGStab:  Solving for h, Initial residual = 0.0025085601, Final residual = 3.1134858e-05, No Iterations 1
GAMG:  Solving for p, Initial residual = 0.029225795, Final residual = 0.00020284217, No Iterations 10
GAMG:  Solving for p, Initial residual = 0.084444625, Final residual = 0.00056136823, No Iterations 4
GAMG:  Solving for p, Initial residual = 0.022072175, Final residual = 0.00013024358, No Iterations 9
time step continuity errors : sum local = 4.4417701e-05, global = -2.5488986e-06, cumulative = -2.7232378e-05
DILUPBiCGStab:  Solving for nuTilda, Initial residual = 6.1557412e-05, Final residual = 5.9070124e-07, No Iterations 1
ExecutionTime = 80.91 s  ClockTime = 81 s

forceCoeffs forceCoeffs write:
    Coefficient	Total	Pressure	Viscous	Internal
    Cd:	-0.065657936	-0.068816333	0.0031583965	0
    Cd(f):	-0.030511196	-0.032087766	0.0015765701	0
    Cd(r):	-0.03514674	-0.036728567	0.0015818264	0
    Cl:	0.0011097158	0.0011027941	6.9216877e-06	0
    Cl(f):	0.0024296759	0.0024704394	-4.0763491e-05	0
    Cl(r):	-0.00131996	-0.0013676452	4.7685179e-05	0
    CmPitch:	0.001874818	0.0019190423	-4.4224335e-05	0
    CmRoll:	0.002317772	0.0023204002	-2.6281597e-06	0
    CmYaw:	-0.018510879	-0.019438354	0.00092747474	0
    Cs:	0.18293728	0.18300019	-6.2908739e-05	0
    Cs(f):	0.072957759	0.072061739	0.00089602037	0
    Cs(r):	0.10997952	0.11093845	-0.00095892911	0

    writing force and moment coefficient files.

Time = 8

DILUPBiCGStab:  Solving for Ux, Initial residual = 0.00030605912, Final residual = 2.5224127e-05, No Iterations 1
DILUPBiCGStab:  Solving for Uy, Initial residual = 0.11384282, Final residual = 0.00085917437, No Iterations 1
DILUPBiCGStab:  Solving for Uz, Initial residual = 0.00053428389, Final residual = 3.9205778e-06, No Iterations 1
DILUPBiCGStab:  Solving for h, Initial residual = 0.0013014467, Final residual = 1.8440732e-05, No Iterations 1
GAMG:  Solving for p, Initial residual = 0.045603606, Final residual = 0.00027406654, No Iterations 10
GAMG:  Solving for p, Initial residual = 0.07197233, Final residual = 0.00059566446, No Iterations 8
GAMG:  Solving for p, Initial residual = 0.019721391, Final residual = 0.00014733706, No Iterations 4
time step continuity errors : sum local = 3.3152841e-05, global = 3.5534004e-06, cumulative = -2.3678978e-05
DILUPBiCGStab:  Solving for nuTilda, Initial residual = 6.4549121e-05, Final residual = 6.9020918e-07, No Iterations 1
ExecutionTime = 91.65 s  ClockTime = 92 s

forceCoeffs forceCoeffs write:
    Coefficient	Total	Pressure	Viscous	Internal
    Cd:	-0.071144771	-0.074263114	0.0031183427	0
    Cd(f):	-0.033109573	-0.034666222	0.0015566488	0
    Cd(r):	-0.038035198	-0.039596892	0.001561694	0
    Cl:	0.00055384622	0.00054828467	5.561554e-06	0
    Cl(f):	0.002232308	0.0022727887	-4.0480702e-05	0
    Cl(r):	-0.0016784618	-0.001724504	4.6042256e-05	0
    CmPitch:	0.0019553849	0.0019986464	-4.3261479e-05	0
    CmRoll:	0.0024628121	0.0024653347	-2.5226004e-06	0
    CmYaw:	-0.017065165	-0.017991174	0.00092600859	0
    Cs:	0.17924967	0.17933906	-8.9388539e-05	0
    Cs(f):	0.072559668	0.071678354	0.00088131432	0
    Cs(r):	0.10669	0.1076607	-0.00097070286	0

    writing force and moment coefficient files.

Time = 9

DILUPBiCGStab:  Solving for Ux, Initial residual = 0.00022869187, Final residual = 2.1918723e-05, No Iterations 1
DILUPBiCGStab:  Solving for Uy, Initial residual = 0.015344187, Final residual = 0.00011754804, No Iterations 1
DILUPBiCGStab:  Solving for Uz, Initial residual = 0.00038284731, Final residual = 2.9322346e-06, No Iterations 1
DILUPBiCGStab:  Solving for h, Initial residual = 0.00094779537, Final residual = 1.1848143e-05, No Iterations 1
GAMG:  Solving for p, Initial residual = 0.057999322, Final residual = 0.0005193672, No Iterations 10
GAMG:  Solving for p, Initial residual = 0.034453394, Final residual = 0.00017994971, No Iterations 8
GAMG:  Solving for p, Initial residual = 0.0070628615, Final residual = 3.1670311e-05, No Iterations 8
time step continuity errors : sum local = 2.170108e-05, global = 4.2574246e-06, cumulative = -1.9421553e-05
DILUPBiCGStab:  Solving for nuTilda, Initial residual = 6.9020562e-05, Final residual = 8.6250774e-07, No Iterations 1
ExecutionTime = 103.16 s  ClockTime = 103 s

forceCoeffs forceCoeffs write:
    Coefficient	Total	Pressure	Viscous	Internal
    Cd:	-0.042013245	-0.045100522	0.0030872772	0
    Cd(f):	-0.018297741	-0.019838857	0.0015411159	0
    Cd(r):	-0.023715503	-0.025261665	0.0015461613	0
    Cl:	-0.0001052698	-0.00010994773	4.6779291e-06	0
    Cl(f):	0.001416645	0.0014564959	-3.98509e-05	0
    Cl(r):	-0.0015219148	-0.0015664436	4.4528829e-05	0
    CmPitch:	0.0014692799	0.0015114698	-4.2189865e-05	0
    CmRoll:	0.002708881	0.0027114036	-2.5226842e-06	0
    CmYaw:	-0.012318174	-0.013243187	0.0009250127	0
    Cs:	0.18235319	0.18246561	-0.00011242128	0
    Cs(f):	0.078858422	0.077989619	0.00086880206	0
    Cs(r):	0.10349477	0.10447599	-0.00098122334	0

    writing force and moment coefficient files.

Time = 10

DILUPBiCGStab:  Solving for Ux, Initial residual = 0.00015508715, Final residual = 1.3790459e-06, No Iterations 1
DILUPBiCGStab:  Solving for Uy, Initial residual = 0.0051753306, Final residual = 0.00046958101, No Iterations 1
DILUPBiCGStab:  Solving for Uz, Initial residual = 0.00018718598, Final residual = 1.5589873e-06, No Iterations 1
DILUPBiCGStab:  Solving for h, Initial residual = 0.00074329162, Final residual = 6.8854251e-06, No Iterations 1
GAMG:  Solving for p, Initial residual = 0.056751512, Final residual = 0.00037766319, No Iterations 12
GAMG:  Solving for p, Initial residual = 0.015381834, Final residual = 0.0001080993, No Iterations 8
GAMG:  Solving for p, Initial residual = 0.0035340418, Final residual = 3.1297412e-05, No Iterations 4
time step continuity errors : sum local = 4.9306105e-05, global = 6.5817903e-06, cumulative = -1.2839763e-05
DILUPBiCGStab:  Solving for nuTilda, Initial residual = 7.4493964e-05, Final residual = 1.1012332e-06, No Iterations 1
ExecutionTime = 114.32 s  ClockTime = 114 s

forceCoeffs forceCoeffs write:
    Coefficient	Total	Pressure	Viscous	Internal
    Cd:	0.0029085787	-0.00015315392	0.0030617326	0
    Cd(f):	0.0044031638	0.0028746961	0.0015284677	0
    Cd(r):	-0.0014945851	-0.00302785	0.0015332649	0
    Cl:	-0.00068038993	-0.00068404585	3.6559219e-06	0
    Cl(f):	0.00036690035	0.0004058974	-3.8997044e-05	0
    Cl(r):	-0.0010472903	-0.0010899432	4.2652966e-05	0
    CmPitch:	0.00070709532	0.00074792032	-4.0825005e-05	0
    CmRoll:	0.0029488744	0.002951273	-2.3986066e-06	0
    CmYaw:	-0.0065330578	-0.0074567124	0.00092365461	0
    Cs:	0.18877863	0.18890859	-0.00012995318	0
    Cs(f):	0.087856259	0.086997581	0.00085867802	0
    Cs(r):	0.10092237	0.10191101	-0.0009886312	0

    writing force and moment coefficient files.

Time = 11

DILUPBiCGStab:  Solving for Ux, Initial residual = 0.0002003949, Final residual = 2.4023289e-06, No Iterations 1
DILUPBiCGStab:  Solving for Uy, Initial residual = 0.0041114404, Final residual = 3.0151113e-05, No Iterations 1
DILUPBiCGStab:  Solving for Uz, Initial residual = 0.00011820088, Final residual = 1.1439386e-06, No Iterations 1
DILUPBiCGStab:  Solving for h, Initial residual = 0.00060633038, Final residual = 5.1810133e-06, No Iterations 1
GAMG:  Solving for p, Initial residual = 0.041477461, Final residual = 0.00029394698, No Iterations 12
GAMG:  Solving for p, Initial residual = 0.0081941832, Final residual = 6.0496889e-05, No Iterations 8
GAMG:  Solving for p, Initial residual = 0.0019736723, Final residual = 1.7549447e-05, No Iterations 4
time step continuity errors : sum local = 4.4116304e-05, global = 3.6988442e-06, cumulative = -9.1409187e-06
DILUPBiCGStab:  Solving for nuTilda, Initial residual = 8.2086132e-05, Final residual = 1.384539e-06, No Iterations 1
ExecutionTime = 125.59 s  ClockTime = 126 s

forceCoeffs forceCoeffs write:
    Coefficient	Total	Pressure	Viscous	Internal
    Cd:	0.044795877	0.041758334	0.0030375425	0
    Cd(f):	0.025498581	0.023982173	0.0015164085	0
    Cd(r):	0.019297296	0.017776162	0.001521134	0
    Cl:	-0.0010006205	-0.0010038794	3.2588958e-06	0
    Cl(f):	-0.00052919591	-0.00049125885	-3.793706e-05	0
    Cl(r):	-0.00047142459	-0.00051262055	4.1195956e-05	0
    CmPitch:	-2.8885659e-05	1.068085e-05	-3.9566508e-05	0
    CmRoll:	0.0031006427	0.0031030054	-2.3627066e-06	0
    CmYaw:	-0.0018580322	-0.0027794203	0.00092138805	0
    Cs:	0.19529949	0.19544131	-0.00014182448	0
    Cs(f):	0.095791713	0.094941237	0.00085047581	0
    Cs(r):	0.099507777	0.10050008	-0.00099230029	0

    writing force and moment coefficient files.

Time = 12

DILUPBiCGStab:  Solving for Ux, Initial residual = 0.00029135929, Final residual = 2.4705121e-06, No Iterations 1
DILUPBiCGStab:  Solving for Uy, Initial residual = 0.0067143869, Final residual = 5.5266162e-05, No Iterations 1
DILUPBiCGStab:  Solving for Uz, Initial residual = 0.00016602772, Final residual = 1.6591021e-06, No Iterations 1
DILUPBiCGStab:  Solving for h, Initial residual = 0.00052958482, Final residual = 4.4607263e-06, No Iterations 1
GAMG:  Solving for p, Initial residual = 0.037323485, Final residual = 0.00021281261, No Iterations 10
GAMG:  Solving for p, Initial residual = 0.0043910463, Final residual = 3.6195597e-05, No Iterations 8
GAMG:  Solving for p, Initial residual = 0.0010662932, Final residual = 8.7325368e-06, No Iterations 5
time step continuity errors : sum local = 2.7728912e-05, global = 4.1537391e-06, cumulative = -4.9871796e-06
DILUPBiCGStab:  Solving for nuTilda, Initial residual = 9.2573861e-05, Final residual = 1.6612558e-06, No Iterations 1
ExecutionTime = 136.54 s  ClockTime = 137 s

forceCoeffs forceCoeffs write:
    Coefficient	Total	Pressure	Viscous	Internal
    Cd:	0.070410931	0.067399172	0.0030117592	0
    Cd(f):	0.038357285	0.036854077	0.0015032084	0
    Cd(r):	0.032053646	0.030545095	0.0015085508	0
    Cl:	-0.0010622639	-0.0010662126	3.9486851e-06	0
    Cl(f):	-0.0010214964	-0.00098429663	-3.7199731e-05	0
    Cl(r):	-4.0767593e-05	-8.191601e-05	4.1148416e-05	0
    CmPitch:	-0.00049036438	-0.00045119031	-3.9174074e-05	0
    CmRoll:	0.0031518199	0.0031544911	-2.671191e-06	0
    CmYaw:	0.00030992902	-0.00060816769	0.00091809671	0
    Cs:	0.19994476	0.20009493	-0.00015016905	0
    Cs(f):	0.10028231	0.099439297	0.00084301219	0
    Cs(r):	0.099662451	0.10065563	-0.00099318124	0

    writing force and moment coefficient files.

Time = 13

DILUPBiCGStab:  Solving for Ux, Initial residual = 0.00030888956, Final residual = 1.9228183e-06, No Iterations 1
DILUPBiCGStab:  Solving for Uy, Initial residual = 0.0094857463, Final residual = 8.568839e-05, No Iterations 1
DILUPBiCGStab:  Solving for Uz, Initial residual = 0.0001776342, Final residual = 1.8024791e-06, No Iterations 1
DILUPBiCGStab:  Solving for h, Initial residual = 0.0004948347, Final residual = 4.573291e-06, No Iterations 1
GAMG:  Solving for p, Initial residual = 0.038855794, Final residual = 0.00024861533, No Iterations 9
GAMG:  Solving for p, Initial residual = 0.0034869769, Final residual = 2.1443113e-05, No Iterations 8
GAMG:  Solving for p, Initial residual = 0.00079101458, Final residual = 7.5322638e-06, No Iterations 4
time step continuity errors : sum local = 2.5477434e-05, global = -6.0810229e-06, cumulative = -1.1068203e-05
DILUPBiCGStab:  Solving for nuTilda, Initial residual = 0.00010545636, Final residual = 1.8570998e-06, No Iterations 1
ExecutionTime = 147.34 s  ClockTime = 147 s

forceCoeffs forceCoeffs write:
    Coefficient	Total	Pressure	Viscous	Internal
    Cd:	0.075392993	0.072411106	0.0029818873	0
    Cd(f):	0.040818865	0.039331034	0.0014878314	0
    Cd(r):	0.034574128	0.033080072	0.0014940559	0
    Cl:	-0.00093692492	-0.00094184382	4.9189071e-06	0
    Cl(f):	-0.0010625381	-0.0010255327	-3.7005467e-05	0
    Cl(r):	0.00012561321	8.368884e-05	4.1924374e-05	0
    CmPitch:	-0.00059407567	-0.00055461075	-3.946492e-05	0
    CmRoll:	0.0031223686	0.0031254809	-3.1122931e-06	0
    CmYaw:	-0.00018017047	-0.0010941256	0.00091395509	0
    Cs:	0.20177101	0.20192851	-0.00015750478	0
    Cs(f):	0.10070533	0.099870131	0.0008352027	0
    Cs(r):	0.10106567	0.10205838	-0.00099270747	0

    writing force and moment coefficient files.

Time = 14

DILUPBiCGStab:  Solving for Ux, Initial residual = 0.00025104098, Final residual = 1.4369659e-06, No Iterations 1
DILUPBiCGStab:  Solving for Uy, Initial residual = 0.010113341, Final residual = 9.8071149e-05, No Iterations 1
DILUPBiCGStab:  Solving for Uz, Initial residual = 0.00014051589, Final residual = 1.4854793e-06, No Iterations 1
DILUPBiCGStab:  Solving for h, Initial residual = 0.00048081074, Final residual = 5.2245919e-06, No Iterations 1
GAMG:  Solving for p, Initial residual = 0.035097601, Final residual = 0.00029733985, No Iterations 10
GAMG:  Solving for p, Initial residual = 0.0043126143, Final residual = 2.4749875e-05, No Iterations 8
GAMG:  Solving for p, Initial residual = 0.00092563254, Final residual = 3.8583837e-06, No Iterations 8
time step continuity errors : sum local = 1.1602039e-05, global = -3.0071976e-06, cumulative = -1.40754e-05
DILUPBiCGStab:  Solving for nuTilda, Initial residual = 0.00012249787, Final residual = 1.9994428e-06, No Iterations 1
ExecutionTime = 158.94 s  ClockTime = 159 s

forceCoeffs forceCoeffs write:
    Coefficient	Total	Pressure	Viscous	Internal
    Cd:	0.063743303	0.060795705	0.0029475987	0
    Cd(f):	0.034911855	0.033441571	0.0014702837	0
    Cd(r):	0.028831448	0.027354133	0.001477315	0
    Cl:	-0.00070970782	-0.00071534462	5.6367992e-06	0
    Cl(f):	-0.00074509771	-0.0007078028	-3.7294905e-05	0
    Cl(r):	3.5389889e-05	-7.5418153e-06	4.2931704e-05	0
    CmPitch:	-0.0003902438	-0.00035013049	-4.0113305e-05	0
    CmRoll:	0.0030402033	0.0030437189	-3.5156215e-06	0
    CmYaw:	-0.0024818264	-0.0033911911	0.00090936473	0
    Cs:	0.20102073	0.20118679	-0.00016605164	0
    Cs(f):	0.098028541	0.097202202	0.00082633891	0
    Cs(r):	0.10299219	0.10398458	-0.00099239055	0

    writing force and moment coefficient files.

Time = 15

DILUPBiCGStab:  Solving for Ux, Initial residual = 0.00016799004, Final residual = 1.2047041e-06, No Iterations 1
DILUPBiCGStab:  Solving for Uy, Initial residual = 0.0069368038, Final residual = 5.7248223e-05, No Iterations 1
DILUPBiCGStab:  Solving for Uz, Initial residual = 9.0000049e-05, Final residual = 1.0618392e-06, No Iterations 1
DILUPBiCGStab:  Solving for h, Initial residual = 0.00048108491, Final residual = 6.1741623e-06, No Iterations 1
GAMG:  Solving for p, Initial residual = 0.028608428, Final residual = 0.0002456334, No Iterations 10
GAMG:  Solving for p, Initial residual = 0.0057155414, Final residual = 3.2672174e-05, No Iterations 8
GAMG:  Solving for p, Initial residual = 0.0013591235, Final residual = 7.6856775e-06, No Iterations 8
time step continuity errors : sum local = 1.7078238e-05, global = -3.0245561e-06, cumulative = -1.7099956e-05
DILUPBiCGStab:  Solving for nuTilda, Initial residual = 0.00014702347, Final residual = 2.1862411e-06, No Iterations 1
ExecutionTime = 170.59 s  ClockTime = 171 s

forceCoeffs forceCoeffs write:
    Coefficient	Total	Pressure	Viscous	Internal
    Cd:	0.043997367	0.041086148	0.0029112191	0
    Cd(f):	0.024950125	0.023498037	0.0014520883	0
    Cd(r):	0.019047242	0.017588111	0.0014591308	0
    Cl:	-0.00049772435	-0.0005027739	5.0495455e-06	0
    Cl(f):	-0.00027317381	-0.00023537907	-3.7794736e-05	0
    Cl(r):	-0.00022455054	-0.00026739482	4.2844281e-05	0
    CmPitch:	-2.4311634e-05	1.6007874e-05	-4.0319508e-05	0
    CmRoll:	0.0029514418	0.002954963	-3.5212548e-06	0
    CmYaw:	-0.005365967	-0.0062709079	0.00090494096	0
    Cs:	0.19884304	0.19902018	-0.00017714903	0
    Cs(f):	0.094055551	0.093239184	0.00081636644	0
    Cs(r):	0.10478748	0.105781	-0.00099351547	0

    writing force and moment coefficient files.

Time = 16

DILUPBiCGStab:  Solving for Ux, Initial residual = 0.00012629265, Final residual = 1.2258299e-06, No Iterations 1
DILUPBiCGStab:  Solving for Uy, Initial residual = 0.0051210683, Final residual = 4.4287946e-05, No Iterations 1
DILUPBiCGStab:  Solving for Uz, Initial residual = 7.1082924e-05, Final residual = 7.5151713e-07, No Iterations 1
DILUPBiCGStab:  Solving for h, Initial residual = 0.00049242159, Final residual = 7.1294551e-06, No Iterations 1
GAMG:  Solving for p, Initial residual = 0.02292886, Final residual = 0.00022383875, No Iterations 11
GAMG:  Solving for p, Initial residual = 0.0081674184, Final residual = 5.048258e-05, No Iterations 8
GAMG:  Solving for p, Initial residual = 0.0021137927, Final residual = 1.5130681e-05, No Iterations 8
time step continuity errors : sum local = 1.9995511e-05, global = 1.557566e-06, cumulative = -1.554239e-05
DILUPBiCGStab:  Solving for nuTilda, Initial residual = 0.0001853583, Final residual = 2.5535112e-06, No Iterations 1
ExecutionTime = 182.4 s  ClockTime = 182 s

forceCoeffs forceCoeffs write:
    Coefficient	Total	Pressure	Viscous	Internal
    Cd:	0.025152626	0.022278701	0.0028739246	0
    Cd(f):	0.015474699	0.014041065	0.0014336337	0
    Cd(r):	0.009677927	0.008237636	0.001440291	0
    Cl:	-0.00039545713	-0.00039927005	3.8129263e-06	0
    Cl(f):	0.00016023242	0.00019836721	-3.8134796e-05	0
    Cl(r):	-0.00055568954	-0.00059763727	4.1947723e-05	0
    CmPitch:	0.00035796098	0.00039800224	-4.004126e-05	0
    CmRoll:	0.0028983858	0.0029017145	-3.3286485e-06	0
    CmYaw:	-0.007730097	-0.0086309199	0.00090082291	0
    Cs:	0.19656122	0.19675167	-0.00019044599	0
    Cs(f):	0.090550515	0.089744915	0.00080559992	0
    Cs(r):	0.10601071	0.10700675	-0.00099604591	0

    writing force and moment coefficient files.

Time = 17

DILUPBiCGStab:  Solving for Ux, Initial residual = 0.00017133271, Final residual = 1.1292582e-06, No Iterations 1
DILUPBiCGStab:  Solving for Uy, Initial residual = 0.0041920284, Final residual = 3.7340865e-05, No Iterations 1
DILUPBiCGStab:  Solving for Uz, Initial residual = 7.7249303e-05, Final residual = 7.2462238e-07, No Iterations 1
DILUPBiCGStab:  Solving for h, Initial residual = 0.00050439659, Final residual = 7.7700152e-06, No Iterations 1
GAMG:  Solving for p, Initial residual = 0.021639542, Final residual = 0.00016323976, No Iterations 11
GAMG:  Solving for p, Initial residual = 0.011893449, Final residual = 7.0400668e-05, No Iterations 8
GAMG:  Solving for p, Initial residual = 0.0031626424, Final residual = 2.3946555e-05, No Iterations 8
time step continuity errors : sum local = 1.571389e-05, global = 1.3461194e-06, cumulative = -1.4196271e-05
DILUPBiCGStab:  Solving for nuTilda, Initial residual = 0.00024866702, Final residual = 3.2605085e-06, No Iterations 1
ExecutionTime = 194.18 s  ClockTime = 194 s

forceCoeffs forceCoeffs write:
    Coefficient	Total	Pressure	Viscous	Internal
    Cd:	0.013381097	0.010542857	0.0028382396	0
    Cd(f):	0.0095933039	0.0081773697	0.0014159342	0
    Cd(r):	0.0037877931	0.0023654876	0.0014223055	0
    Cl:	-0.00044902416	-0.00045176411	2.7399547e-06	0
    Cl(f):	0.00041447023	0.000452592	-3.8121769e-05	0
    Cl(r):	-0.00086349439	-0.00090435611	4.0861723e-05	0
    CmPitch:	0.00063898231	0.00067847406	-3.9491746e-05	0
    CmRoll:	0.0029027554	0.0029059411	-3.1856501e-06	0
    CmYaw:	-0.0088961991	-0.009793455	0.00089725598	0
    Cs:	0.19505483	0.19525989	-0.00020506866	0
    Cs(f):	0.088631214	0.087836492	0.00079472165	0
    Cs(r):	0.10642361	0.1074234	-0.00099979031	0

    writing force and moment coefficient files.

Time = 18

DILUPBiCGStab:  Solving for Ux, Initial residual = 0.00020785756, Final residual = 1.8773162e-05, No Iterations 1
DILUPBiCGStab:  Solving for Uy, Initial residual = 0.0029639358, Final residual = 2.686626e-05, No Iterations 1
DILUPBiCGStab:  Solving for Uz, Initial residual = 7.6050518e-05, Final residual = 6.8285346e-07, No Iterations 1
DILUPBiCGStab:  Solving for h, Initial residual = 0.00058484304, Final residual = 8.5545568e-06, No Iterations 1
GAMG:  Solving for p, Initial residual = 0.029428938, Final residual = 0.00014374737, No Iterations 9
GAMG:  Solving for p, Initial residual = 0.01489879, Final residual = 8.22118e-05, No Iterations 8
GAMG:  Solving for p, Initial residual = 0.0036321301, Final residual = 3.438181e-05, No Iterations 3
time step continuity errors : sum local = 1.7491297e-05, global = -1.1970977e-06, cumulative = -1.5393369e-05
DILUPBiCGStab:  Solving for nuTilda, Initial residual = 0.00036446704, Final residual = 4.6630605e-06, No Iterations 1
ExecutionTime = 204.64 s  ClockTime = 205 s

forceCoeffs forceCoeffs write:
    Coefficient	Total	Pressure	Viscous	Internal
    Cd:	0.010678686	0.0078721177	0.0028065679	0
    Cd(f):	0.0082872424	0.0068871313	0.0014001111	0
    Cd(r):	0.0023914432	0.00098498639	0.0014064568	0
    Cl:	-0.00061330614	-0.00061542277	2.1166224e-06	0
    Cl(f):	0.00043878328	0.00047646747	-3.7684191e-05	0
    Cl(r):	-0.0010520894	-0.0010918902	3.9800813e-05	0
    CmPitch:	0.00074543635	0.00078417885	-3.8742502e-05	0
    CmRoll:	0.0029478996	0.0029510724	-3.1728243e-06	0
    CmYaw:	-0.0087718235	-0.0096662785	0.00089445497	0
    Cs:	0.19459262	0.19481245	-0.00021982773	0
    Cs(f):	0.088524486	0.087739945	0.00078454111	0
    Cs(r):	0.10606813	0.1070725	-0.0010043688	0

    writing force and moment coefficient files.

Time = 19

DILUPBiCGStab:  Solving for Ux, Initial residual = 0.00019496543, Final residual = 1.4893825e-05, No Iterations 1
DILUPBiCGStab:  Solving for Uy, Initial residual = 0.001812413, Final residual = 1.6867075e-05, No Iterations 1
DILUPBiCGStab:  Solving for Uz, Initial residual = 5.8592126e-05, Final residual = 5.3898518e-07, No Iterations 1
DILUPBiCGStab:  Solving for h, Initial residual = 0.00062662355, Final residual = 9.2979342e-06, No Iterations 1
GAMG:  Solving for p, Initial residual = 0.035729979, Final residual = 0.00022274031, No Iterations 10
GAMG:  Solving for p, Initial residual = 0.0095049118, Final residual = 4.3924113e-05, No Iterations 8
GAMG:  Solving for p, Initial residual = 0.002173862, Final residual = 1.1838128e-05, No Iterations 8
time step continuity errors : sum local = 1.034211e-05, global = 1.3778177e-06, cumulative = -1.4015551e-05
DILUPBiCGStab:  Solving for nuTilda, Initial residual = 0.00063863402, Final residual = 8.1632908e-06, No Iterations 1
ExecutionTime = 216.18 s  ClockTime = 216 s

forceCoeffs forceCoeffs write:
    Coefficient	Total	Pressure	Viscous	Internal
    Cd:	0.015421526	0.012642716	0.00277881	0
    Cd(f):	0.010726833	0.0093407186	0.0013861148	0
    Cd(r):	0.0046946929	0.0033019977	0.0013926952	0
    Cl:	-0.00084134691	-0.00084332168	1.9747681e-06	0
    Cl(f):	0.00027371558	0.00031057692	-3.6861346e-05	0
    Cl(r):	-0.0011150625	-0.0011538986	3.8836114e-05	0
    CmPitch:	0.00069438903	0.00073223776	-3.784873e-05	0
    CmRoll:	0.0030160702	0.0030193604	-3.2902312e-06	0
    CmYaw:	-0.0077205368	-0.0086126428	0.00089210593	0
    Cs:	0.19500234	0.19523606	-0.00023371854	0
    Cs(f):	0.089780635	0.089005388	0.00077524665	0
    Cs(r):	0.10522171	0.10623067	-0.0010089652	0

    writing force and moment coefficient files.

Time = 20

DILUPBiCGStab:  Solving for Ux, Initial residual = 0.00015081003, Final residual = 1.2016279e-05, No Iterations 1
DILUPBiCGStab:  Solving for Uy, Initial residual = 0.0011989635, Final residual = 1.170352e-05, No Iterations 1
DILUPBiCGStab:  Solving for Uz, Initial residual = 4.269816e-05, Final residual = 4.9051748e-07, No Iterations 1
DILUPBiCGStab:  Solving for h, Initial residual = 0.00075487923, Final residual = 1.0771695e-05, No Iterations 1
GAMG:  Solving for p, Initial residual = 0.034249853, Final residual = 0.00034244736, No Iterations 11
GAMG:  Solving for p, Initial residual = 0.0049850883, Final residual = 2.8712555e-05, No Iterations 8
GAMG:  Solving for p, Initial residual = 0.0011655618, Final residual = 7.4631456e-06, No Iterations 8
time step continuity errors : sum local = 1.159643e-05, global = -9.6137662e-07, cumulative = -1.4976928e-05
DILUPBiCGStab:  Solving for nuTilda, Initial residual = 0.0021454526, Final residual = 2.7489734e-05, No Iterations 1
ExecutionTime = 227.9 s  ClockTime = 228 s

forceCoeffs forceCoeffs write:
    Coefficient	Total	Pressure	Viscous	Internal
    Cd:	0.023865195	0.02111093	0.0027542653	0
    Cd(f):	0.015009214	0.013635613	0.0013736013	0
    Cd(r):	0.0088559813	0.0074753173	0.001380664	0
    Cl:	-0.0010330328	-0.0010353333	2.300419e-06	0
    Cl(f):	4.3758053e-05	7.9594053e-05	-3.5836e-05	0
    Cl(r):	-0.0010767909	-0.0011149273	3.8136419e-05	0
    CmPitch:	0.00056027447	0.00059726068	-3.6986209e-05	0
    CmRoll:	0.0030766163	0.0030801476	-3.5313666e-06	0
    CmYaw:	-0.0063223897	-0.0072123225	0.00088993284	0
    Cs:	0.19583183	0.19607805	-0.00024621772	0
    Cs(f):	0.091593527	0.090826703	0.00076682398	0
    Cs(r):	0.10423831	0.10525135	-0.0010130417	0

    writing force and moment coefficient files.

Time = 21

DILUPBiCGStab:  Solving for Ux, Initial residual = 0.00010059461, Final residual = 5.044249e-07, No Iterations 1
DILUPBiCGStab:  Solving for Uy, Initial residual = 0.0011859011, Final residual = 1.2397224e-05, No Iterations 1
DILUPBiCGStab:  Solving for Uz, Initial residual = 4.1759288e-05, Final residual = 5.6562525e-07, No Iterations 1
DILUPBiCGStab:  Solving for h, Initial residual = 0.00092040438, Final residual = 1.3076488e-05, No Iterations 1
GAMG:  Solving for p, Initial residual = 0.027746177, Final residual = 0.00019174943, No Iterations 13
GAMG:  Solving for p, Initial residual = 0.0026000443, Final residual = 1.4354667e-05, No Iterations 8
GAMG:  Solving for p, Initial residual = 0.0006332043, Final residual = 4.8331802e-06, No Iterations 8
time step continuity errors : sum local = 1.0825888e-05, global = -7.8574465e-07, cumulative = -1.5762672e-05
DILUPBiCGStab:  Solving for nuTilda, Initial residual = 0.0016535783, Final residual = 2.1101768e-05, No Iterations 1
ExecutionTime = 240.22 s  ClockTime = 240 s

forceCoeffs forceCoeffs write:
    Coefficient	Total	Pressure	Viscous	Internal
    Cd:	0.032110551	0.029379051	0.0027314996	0
    Cd(f):	0.019157967	0.017796084	0.0013618833	0
    Cd(r):	0.012952584	0.011582967	0.0013696162	0
    Cl:	-0.0011009189	-0.0011038877	2.9687607e-06	0
    Cl(f):	-0.0001374183	-0.00010257507	-3.484324e-05	0
    Cl(r):	-0.00096350064	-0.0010013126	3.7812e-05	0
    CmPitch:	0.00041304117	0.00044936879	-3.632762e-05	0
    CmRoll:	0.0031026919	0.0031065583	-3.8664512e-06	0
    CmYaw:	-0.005143219	-0.0060308385	0.00088761949	0
    Cs:	0.19669702	0.19695434	-0.0002573183	0
    Cs(f):	0.093205291	0.09244633	0.00075896034	0
    Cs(r):	0.10349173	0.10450801	-0.0010162786	0

    writing force and moment coefficient files.

Time = 22

DILUPBiCGStab:  Solving for Ux, Initial residual = 8.4605714e-05, Final residual = 7.2134364e-07, No Iterations 1
DILUPBiCGStab:  Solving for Uy, Initial residual = 0.0013362924, Final residual = 1.4305106e-05, No Iterations 1
DILUPBiCGStab:  Solving for Uz, Initial residual = 4.5593695e-05, Final residual = 5.9963581e-07, No Iterations 1
DILUPBiCGStab:  Solving for h, Initial residual = 0.0011661251, Final residual = 1.5890889e-05, No Iterations 1
GAMG:  Solving for p, Initial residual = 0.02230392, Final residual = 0.00015068466, No Iterations 10
GAMG:  Solving for p, Initial residual = 0.0018337175, Final residual = 1.0287556e-05, No Iterations 8
GAMG:  Solving for p, Initial residual = 0.00043124331, Final residual = 3.5363903e-06, No Iterations 8
time step continuity errors : sum local = 9.5692255e-06, global = -5.9183465e-07, cumulative = -1.6354507e-05
DILUPBiCGStab:  Solving for nuTilda, Initial residual = 0.00063814796, Final residual = 8.0708079e-06, No Iterations 1
ExecutionTime = 251.89 s  ClockTime = 252 s

forceCoeffs forceCoeffs write:
    Coefficient	Total	Pressure	Viscous	Internal
    Cd:	0.037393537	0.034683481	0.0027100558	0
    Cd(f):	0.021795228	0.020444404	0.0013508238	0
    Cd(r):	0.015598309	0.014239077	0.001359232	0
    Cl:	-0.0010617894	-0.0010653955	3.6060351e-06	0
    Cl(f):	-0.00022123032	-0.0001870931	-3.4137219e-05	0
    Cl(r):	-0.00084055913	-0.00087830238	3.7743254e-05	0
    CmPitch:	0.00030966441	0.00034560464	-3.5940237e-05	0
    CmRoll:	0.0030984591	0.0031026632	-4.204145e-06	0
    CmYaw:	-0.0045407782	-0.0054259758	0.00088519764	0
    Cs:	0.19733327	0.19760075	-0.00026748396	0
    Cs(f):	0.094125856	0.0933744	0.00075145566	0
    Cs(r):	0.10320741	0.10422635	-0.0010189396	0

    writing force and moment coefficient files.

Time = 23

DILUPBiCGStab:  Solving for Ux, Initial residual = 0.00012808472, Final residual = 6.6784816e-07, No Iterations 1
DILUPBiCGStab:  Solving for Uy, Initial residual = 0.0013214455, Final residual = 1.3788374e-05, No Iterations 1
DILUPBiCGStab:  Solving for Uz, Initial residual = 4.5307046e-05, Final residual = 5.2517075e-07, No Iterations 1
DILUPBiCGStab:  Solving for h, Initial residual = 0.0016640761, Final residual = 2.2041937e-05, No Iterations 1
GAMG:  Solving for p, Initial residual = 0.019695488, Final residual = 0.00017898222, No Iterations 9
GAMG:  Solving for p, Initial residual = 0.0019026465, Final residual = 1.8082126e-05, No Iterations 7
GAMG:  Solving for p, Initial residual = 0.00044867077, Final residual = 2.4310525e-06, No Iterations 8
time step continuity errors : sum local = 6.7450915e-06, global = 1.9885324e-06, cumulative = -1.4365974e-05
DILUPBiCGStab:  Solving for nuTilda, Initial residual = 0.00040192262, Final residual = 5.0141136e-06, No Iterations 1
ExecutionTime = 263.18 s  ClockTime = 263 s

forceCoeffs forceCoeffs write:
    Coefficient	Total	Pressure	Viscous	Internal
    Cd:	0.038695567	0.036006769	0.0026887978	0
    Cd(f):	0.022433343	0.021093347	0.0013399958	0
    Cd(r):	0.016262224	0.014913422	0.001348802	0
    Cl:	-0.00098030541	-0.00098406642	3.761006e-06	0
    Cl(f):	-0.00023180643	-0.00019794979	-3.3856636e-05	0
    Cl(r):	-0.00074849898	-0.00078611663	3.7617642e-05	0
    CmPitch:	0.00025834628	0.00029408342	-3.5737139e-05	0
    CmRoll:	0.0030855594	0.0030899625	-4.4030886e-06	0
    CmYaw:	-0.0045784215	-0.0054609913	0.00088256985	0
    Cs:	0.19762985	0.19790709	-0.00027724546	0
    Cs(f):	0.094236502	0.093492555	0.00074394712	0
    Cs(r):	0.10339335	0.10441454	-0.0010211926	0

    writing force and moment coefficient files.

Time = 24

DILUPBiCGStab:  Solving for Ux, Initial residual = 0.00014818265, Final residual = 1.3094209e-05, No Iterations 1
DILUPBiCGStab:  Solving for Uy, Initial residual = 0.0012177833, Final residual = 1.1946529e-05, No Iterations 1
DILUPBiCGStab:  Solving for Uz, Initial residual = 4.2644998e-05, Final residual = 4.3193438e-07, No Iterations 1
DILUPBiCGStab:  Solving for h, Initial residual = 0.0031578894, Final residual = 3.916052e-05, No Iterations 1
GAMG:  Solving for p, Initial residual = 0.018642456, Final residual = 0.00011865229, No Iterations 10
GAMG:  Solving for p, Initial residual = 0.0020185303, Final residual = 9.8897779e-06, No Iterations 8
GAMG:  Solving for p, Initial residual = 0.00050163993, Final residual = 4.6925799e-06, No Iterations 4
time step continuity errors : sum local = 1.1578092e-05, global = -2.1646033e-06, cumulative = -1.6530578e-05
DILUPBiCGStab:  Solving for nuTilda, Initial residual = 0.00029407888, Final residual = 3.6179387e-06, No Iterations 1
ExecutionTime = 274.01 s  ClockTime = 274 s

forceCoeffs forceCoeffs write:
    Coefficient	Total	Pressure	Viscous	Internal
    Cd:	0.036713764	0.034046228	0.0026675358	0
    Cd(f):	0.021420434	0.020091111	0.0013293224	0
    Cd(r):	0.01529333	0.013955116	0.0013382133	0
    Cl:	-0.00087338623	-0.00087676981	3.3835738e-06	0
    Cl(f):	-0.00019391616	-0.00015992306	-3.3993097e-05	0
    Cl(r):	-0.00067947007	-0.00071684674	3.7376671e-05	0
    CmPitch:	0.00024277696	0.00027846184	-3.5684884e-05	0
    CmRoll:	0.003063552	0.0030679975	-4.4454591e-06	0
    CmYaw:	-0.0050764885	-0.0059563495	0.00087986093	0
    Cs:	0.19762203	0.19790905	-0.00028701895	0
    Cs(f):	0.093734525	0.092998173	0.00073635145	0
    Cs(r):	0.1038875	0.10491087	-0.0010233704	0

    writing force and moment coefficient files.

Time = 25

DILUPBiCGStab:  Solving for Ux, Initial residual = 0.00013264049, Final residual = 1.0631668e-05, No Iterations 1
DILUPBiCGStab:  Solving for Uy, Initial residual = 0.0011439013, Final residual = 1.1650528e-05, No Iterations 1
DILUPBiCGStab:  Solving for Uz, Initial residual = 3.9201389e-05, Final residual = 3.9754618e-07, No Iterations 1
DILUPBiCGStab:  Solving for h, Initial residual = 0.023925693, Final residual = 0.00030347115, No Iterations 1
GAMG:  Solving for p, Initial residual = 0.015868382, Final residual = 0.00015465851, No Iterations 11
GAMG:  Solving for p, Initial residual = 0.002223909, Final residual = 1.9727456e-05, No Iterations 8
GAMG:  Solving for p, Initial residual = 0.00058180225, Final residual = 4.7886205e-06, No Iterations 4
time step continuity errors : sum local = 9.2372777e-06, global = -1.0783508e-06, cumulative = -1.7608929e-05
DILUPBiCGStab:  Solving for nuTilda, Initial residual = 0.00023246383, Final residual = 2.8305131e-06, No Iterations 1
ExecutionTime = 285.11 s  ClockTime = 285 s

forceCoeffs forceCoeffs write:
    Coefficient	Total	Pressure	Viscous	Internal
    Cd:	0.03307321	0.030427489	0.0026457204	0
    Cd(f):	0.019567843	0.018249374	0.0013184687	0
    Cd(r):	0.013505367	0.012178115	0.0013272518	0
    Cl:	-0.00075125477	-0.00075393206	2.6772879e-06	0
    Cl(f):	-0.00013421793	-9.9817653e-05	-3.4400277e-05	0
    Cl(r):	-0.00061703684	-0.0006541144	3.7077565e-05	0
    CmPitch:	0.00024140945	0.00027714838	-3.5738921e-05	0
    CmRoll:	0.0030312381	0.0030356297	-4.3915597e-06	0
    CmYaw:	-0.0057472908	-0.0066242765	0.00087698568	0
    Cs:	0.19745227	0.19774931	-0.00029703452	0
    Cs(f):	0.092978845	0.092250376	0.00072846842	0
    Cs(r):	0.10447343	0.10549893	-0.0010255029	0

    writing force and moment coefficient files.

Time = 26

DILUPBiCGStab:  Solving for Ux, Initial residual = 9.7608217e-05, Final residual = 9.4421912e-06, No Iterations 1
DILUPBiCGStab:  Solving for Uy, Initial residual = 0.0010767733, Final residual = 1.3134566e-05, No Iterations 1
DILUPBiCGStab:  Solving for Uz, Initial residual = 3.5805409e-05, Final residual = 3.9058527e-07, No Iterations 1
DILUPBiCGStab:  Solving for h, Initial residual = 0.0034930765, Final residual = 4.3952697e-05, No Iterations 1
GAMG:  Solving for p, Initial residual = 0.013870387, Final residual = 0.00012472073, No Iterations 12
GAMG:  Solving for p, Initial residual = 0.0025173768, Final residual = 1.5292765e-05, No Iterations 8
GAMG:  Solving for p, Initial residual = 0.00064178791, Final residual = 2.4220811e-06, No Iterations 8
time step continuity errors : sum local = 3.35275e-06, global = -7.4887359e-07, cumulative = -1.8357802e-05
DILUPBiCGStab:  Solving for nuTilda, Initial residual = 0.00019305721, Final residual = 2.3327858e-06, No Iterations 1
ExecutionTime = 297.07 s  ClockTime = 297 s

forceCoeffs forceCoeffs write:
    Coefficient	Total	Pressure	Viscous	Internal
    Cd:	0.029467605	0.026843923	0.0026236815	0
    Cd(f):	0.017722856	0.016415322	0.001307534	0
    Cd(r):	0.011744749	0.010428601	0.0013161475	0
    Cl:	-0.00060697656	-0.00060884481	1.8682506e-06	0
    Cl(f):	-6.6284527e-05	-3.1391206e-05	-3.4893321e-05	0
    Cl(r):	-0.00054069203	-0.0005774536	3.6761572e-05	0
    CmPitch:	0.00023720375	0.0002730312	-3.5827446e-05	0
    CmRoll:	0.0029890535	0.0029933603	-4.3067492e-06	0
    CmYaw:	-0.0063214709	-0.0071954958	0.00087402493	0
    Cs:	0.19726804	0.19757534	-0.00030730575	0
    Cs(f):	0.092312547	0.091592175	0.00072037206	0
    Cs(r):	0.10495549	0.10598317	-0.0010276778	0

    writing force and moment coefficient files.

Time = 27

DILUPBiCGStab:  Solving for Ux, Initial residual = 7.094889e-05, Final residual = 4.5708966e-07, No Iterations 1
DILUPBiCGStab:  Solving for Uy, Initial residual = 0.00097685757, Final residual = 1.2147693e-05, No Iterations 1
DILUPBiCGStab:  Solving for Uz, Initial residual = 3.2583346e-05, Final residual = 3.6513152e-07, No Iterations 1
DILUPBiCGStab:  Solving for h, Initial residual = 0.001807034, Final residual = 2.2459177e-05, No Iterations 1
GAMG:  Solving for p, Initial residual = 0.013613505, Final residual = 0.00012734247, No Iterations 12
GAMG:  Solving for p, Initial residual = 0.0032521186, Final residual = 3.0388559e-05, No Iterations 7
GAMG:  Solving for p, Initial residual = 0.00084064705, Final residual = 3.2064634e-06, No Iterations 8
time step continuity errors : sum local = 3.3498037e-06, global = -8.5512672e-07, cumulative = -1.9212929e-05
DILUPBiCGStab:  Solving for nuTilda, Initial residual = 0.0001666064, Final residual = 1.9996729e-06, No Iterations 1
ExecutionTime = 308.87 s  ClockTime = 309 s

forceCoeffs forceCoeffs write:
    Coefficient	Total	Pressure	Viscous	Internal
    Cd:	0.027092628	0.024490971	0.0026016566	0
    Cd(f):	0.016493178	0.015196603	0.0012965751	0
    Cd(r):	0.01059945	0.0092943683	0.0013050814	0
    Cl:	-0.0004745838	-0.0004757467	1.1628979e-06	0
    Cl(f):	-3.1094796e-05	4.2066875e-06	-3.5301484e-05	0
    Cl(r):	-0.000443489	-0.00047995339	3.6464382e-05	0
    CmPitch:	0.0002061971	0.00024208004	-3.5882933e-05	0
    CmRoll:	0.0029468641	0.0029511173	-4.2531497e-06	0
    CmYaw:	-0.0066332228	-0.0075041893	0.00087096656	0
    Cs:	0.1971555	0.19747315	-0.00031764617	0
    Cs(f):	0.091944528	0.091232384	0.00071214347	0
    Cs(r):	0.10521097	0.10624076	-0.0010297896	0

    writing force and moment coefficient files.

Time = 28

DILUPBiCGStab:  Solving for Ux, Initial residual = 8.802634e-05, Final residual = 4.8861637e-07, No Iterations 1
DILUPBiCGStab:  Solving for Uy, Initial residual = 0.00079506703, Final residual = 9.1853978e-06, No Iterations 1
DILUPBiCGStab:  Solving for Uz, Initial residual = 2.8450157e-05, Final residual = 3.0952712e-07, No Iterations 1
DILUPBiCGStab:  Solving for h, Initial residual = 0.0012088934, Final residual = 1.5044476e-05, No Iterations 1
GAMG:  Solving for p, Initial residual = 0.014074939, Final residual = 8.8286424e-05, No Iterations 12
GAMG:  Solving for p, Initial residual = 0.0032086385, Final residual = 1.6762713e-05, No Iterations 8
GAMG:  Solving for p, Initial residual = 0.0008517461, Final residual = 5.5763855e-06, No Iterations 4
time step continuity errors : sum local = 5.6013457e-06, global = -9.5514395e-07, cumulative = -2.0168073e-05
DILUPBiCGStab:  Solving for nuTilda, Initial residual = 0.00014787791, Final residual = 1.7753424e-06, No Iterations 1
ExecutionTime = 320.17 s  ClockTime = 320 s

forceCoeffs forceCoeffs write:
    Coefficient	Total	Pressure	Viscous	Internal
    Cd:	0.026396644	0.023815874	0.00258077	0
    Cd(f):	0.01610403	0.014817923	0.0012861078	0
    Cd(r):	0.010292614	0.0089979515	0.0012946622	0
    Cl:	-0.00035966516	-0.00036038207	7.1690792e-07	0
    Cl(f):	-2.2809332e-05	1.2694128e-05	-3.550346e-05	0
    Cl(r):	-0.00033685583	-0.0003730762	3.6220367e-05	0
    CmPitch:	0.00015702325	0.00019288516	-3.5861914e-05	0
    CmRoll:	0.0029057084	0.0029099856	-4.2771962e-06	0
    CmYaw:	-0.0066467546	-0.0075148216	0.00086806695	0
    Cs:	0.19714433	0.19747212	-0.0003277924	0
    Cs(f):	0.091925409	0.091221238	0.00070417074	0
    Cs(r):	0.10521892	0.10625088	-0.0010319631	0

    writing force and moment coefficient files.

Time = 29

DILUPBiCGStab:  Solving for Ux, Initial residual = 0.00011130186, Final residual = 1.0584646e-05, No Iterations 1
DILUPBiCGStab:  Solving for Uy, Initial residual = 0.00064771367, Final residual = 6.6254797e-06, No Iterations 1
DILUPBiCGStab:  Solving for Uz, Initial residual = 2.4534246e-05, Final residual = 2.5269453e-07, No Iterations 1
DILUPBiCGStab:  Solving for h, Initial residual = 0.00094925496, Final residual = 1.1646592e-05, No Iterations 1
GAMG:  Solving for p, Initial residual = 0.014737666, Final residual = 0.00013161587, No Iterations 10
GAMG:  Solving for p, Initial residual = 0.00245998, Final residual = 2.4096606e-05, No Iterations 7
GAMG:  Solving for p, Initial residual = 0.00064529054, Final residual = 4.7935733e-06, No Iterations 4
time step continuity errors : sum local = 5.9982455e-06, global = 9.6838003e-07, cumulative = -1.9199693e-05
DILUPBiCGStab:  Solving for nuTilda, Initial residual = 0.00013383538, Final residual = 1.612459e-06, No Iterations 1
ExecutionTime = 330.9 s  ClockTime = 331 s

forceCoeffs forceCoeffs write:
    Coefficient	Total	Pressure	Viscous	Internal
    Cd:	0.027112109	0.024550405	0.0025617045	0
    Cd(f):	0.016422229	0.015145769	0.0012764595	0
    Cd(r):	0.010689881	0.0094046356	0.001285245	0
    Cl:	-0.0002556779	-0.00025626864	5.9074505e-07	0
    Cl(f):	-2.4742738e-05	1.0689732e-05	-3.543247e-05	0
    Cl(r):	-0.00023093516	-0.00026695838	3.6023215e-05	0
    CmPitch:	0.00010309621	0.00013882405	-3.5727842e-05	0
    CmRoll:	0.0028661742	0.0028705669	-4.3927415e-06	0
    CmYaw:	-0.0064389838	-0.0073044588	0.00086547502	0
    Cs:	0.19720675	0.19754425	-0.00033749719	0
    Cs(f):	0.092164393	0.091467667	0.00069672643	0
    Cs(r):	0.10504236	0.10607658	-0.0010342236	0

    writing force and moment coefficient files.

Time = 30

DILUPBiCGStab:  Solving for Ux, Initial residual = 0.00010580024, Final residual = 8.4945474e-06, No Iterations 1
DILUPBiCGStab:  Solving for Uy, Initial residual = 0.00062889133, Final residual = 5.9427673e-06, No Iterations 1
DILUPBiCGStab:  Solving for Uz, Initial residual = 2.3310206e-05, Final residual = 2.3432366e-07, No Iterations 1
DILUPBiCGStab:  Solving for h, Initial residual = 0.00075079236, Final residual = 9.4234364e-06, No Iterations 1
GAMG:  Solving for p, Initial residual = 0.014061521, Final residual = 0.00012253939, No Iterations 11
GAMG:  Solving for p, Initial residual = 0.0015102564, Final residual = 1.4486251e-05, No Iterations 7
GAMG:  Solving for p, Initial residual = 0.00038716295, Final residual = 1.7476523e-06, No Iterations 8
time step continuity errors : sum local = 2.8914779e-06, global = 6.9297088e-07, cumulative = -1.8506722e-05
DILUPBiCGStab:  Solving for nuTilda, Initial residual = 0.00012286634, Final residual = 1.4883848e-06, No Iterations 1
ExecutionTime = 342.56 s  ClockTime = 343 s

forceCoeffs forceCoeffs write:
    Coefficient	Total	Pressure	Viscous	Internal
    Cd:	0.02857249	0.026028545	0.0025439446	0
    Cd(f):	0.017113656	0.015846272	0.0012673832	0
    Cd(r):	0.011458834	0.010182273	0.0012765614	0
    Cl:	-0.0001449799	-0.0001457459	7.6599778e-07	0
    Cl(f):	-1.5842865e-05	1.925129e-05	-3.5094155e-05	0
    Cl(r):	-0.00012913703	-0.00016499719	3.5860153e-05	0
    CmPitch:	5.6647085e-05	9.2124238e-05	-3.5477154e-05	0
    CmRoll:	0.0028274105	0.0028319996	-4.5890803e-06	0
    CmYaw:	-0.0061415086	-0.0070045168	0.00086300818	0
    Cs:	0.19730168	0.19764831	-0.00034663456	0
    Cs(f):	0.09250933	0.091819639	0.0006896909	0
    Cs(r):	0.10479235	0.10582867	-0.0010363255	0

    writing force and moment coefficient files.

Time = 31

DILUPBiCGStab:  Solving for Ux, Initial residual = 8.1315948e-05, Final residual = 7.0363552e-06, No Iterations 1
DILUPBiCGStab:  Solving for Uy, Initial residual = 0.00066816389, Final residual = 8.2499013e-06, No Iterations 1
DILUPBiCGStab:  Solving for Uz, Initial residual = 2.452442e-05, Final residual = 2.5433142e-07, No Iterations 1
DILUPBiCGStab:  Solving for h, Initial residual = 0.00065881086, Final residual = 8.034626e-06, No Iterations 1
GAMG:  Solving for p, Initial residual = 0.0123511, Final residual = 7.6272234e-05, No Iterations 14
GAMG:  Solving for p, Initial residual = 0.0010979095, Final residual = 5.0778912e-06, No Iterations 8
GAMG:  Solving for p, Initial residual = 0.00027985162, Final residual = 2.7040372e-06, No Iterations 4
time step continuity errors : sum local = 5.5596774e-06, global = 1.2368297e-06, cumulative = -1.7269892e-05
DILUPBiCGStab:  Solving for nuTilda, Initial residual = 0.00011425479, Final residual = 1.3936835e-06, No Iterations 1
ExecutionTime = 354.16 s  ClockTime = 354 s

forceCoeffs forceCoeffs write:
    Coefficient	Total	Pressure	Viscous	Internal
    Cd:	0.030054508	0.027527358	0.0025271502	0
    Cd(f):	0.017819703	0.016560964	0.0012587388	0
    Cd(r):	0.012234805	0.010966394	0.0012684114	0
    Cl:	-3.2273007e-05	-3.3420675e-05	1.1476685e-06	0
    Cl(f):	5.3608363e-06	3.9947769e-05	-3.4586933e-05	0
    Cl(r):	-3.7633843e-05	-7.3368444e-05	3.5734601e-05	0
    CmPitch:	2.149734e-05	5.6658107e-05	-3.5160767e-05	0
    CmRoll:	0.0027924488	0.0027972852	-4.8363228e-06	0
    CmYaw:	-0.0058813192	-0.0067418821	0.00086056291	0
    Cs:	0.197387	0.19774224	-0.00035523705	0
    Cs(f):	0.092812181	0.092129237	0.00068294439	0
    Cs(r):	0.10457482	0.105613	-0.0010381814	0

    writing force and moment coefficient files.

Time = 32

DILUPBiCGStab:  Solving for Ux, Initial residual = 5.3286555e-05, Final residual = 2.3480074e-07, No Iterations 1
DILUPBiCGStab:  Solving for Uy, Initial residual = 0.0007213985, Final residual = 1.0911176e-05, No Iterations 1
DILUPBiCGStab:  Solving for Uz, Initial residual = 2.5996891e-05, Final residual = 2.7872801e-07, No Iterations 1
DILUPBiCGStab:  Solving for h, Initial residual = 0.00058376405, Final residual = 6.6676817e-06, No Iterations 1
GAMG:  Solving for p, Initial residual = 0.01126383, Final residual = 0.00010692345, No Iterations 12
GAMG:  Solving for p, Initial residual = 0.0010581566, Final residual = 9.989211e-06, No Iterations 7
GAMG:  Solving for p, Initial residual = 0.00027085471, Final residual = 1.1734393e-06, No Iterations 8
time step continuity errors : sum local = 2.7020729e-06, global = 7.1207193e-07, cumulative = -1.655782e-05
DILUPBiCGStab:  Solving for nuTilda, Initial residual = 0.00010728036, Final residual = 1.3157092e-06, No Iterations 1
ExecutionTime = 365.99 s  ClockTime = 366 s

forceCoeffs forceCoeffs write:
    Coefficient	Total	Pressure	Viscous	Internal
    Cd:	0.031036047	0.028525364	0.0025106829	0
    Cd(f):	0.018283518	0.017033267	0.0012502508	0
    Cd(r):	0.012752529	0.011492097	0.001260432	0
    Cl:	7.7901286e-05	7.6320647e-05	1.5806392e-06	0
    Cl(f):	3.4924985e-05	6.8971324e-05	-3.404634e-05	0
    Cl(r):	4.2976301e-05	7.3493225e-06	3.5626979e-05	0
    CmPitch:	-4.0256583e-06	3.0811001e-05	-3.4836659e-05	0
    CmRoll:	0.0027654944	0.002770585	-5.0906174e-06	0
    CmYaw:	-0.0057386265	-0.0065965979	0.00085797149	0
    Cs:	0.19744566	0.19780911	-0.00036344683	0
    Cs(f):	0.092984203	0.092307955	0.00067624808	0
    Cs(r):	0.10446146	0.10550115	-0.0010396949	0

    writing force and moment coefficient files.

Time = 33

DILUPBiCGStab:  Solving for Ux, Initial residual = 4.6082659e-05, Final residual = 3.8808388e-07, No Iterations 1
DILUPBiCGStab:  Solving for Uy, Initial residual = 0.00076222796, Final residual = 1.0511005e-05, No Iterations 1
DILUPBiCGStab:  Solving for Uz, Initial residual = 2.6717889e-05, Final residual = 2.8381517e-07, No Iterations 1
DILUPBiCGStab:  Solving for h, Initial residual = 0.00052109967, Final residual = 5.5621748e-06, No Iterations 1
GAMG:  Solving for p, Initial residual = 0.0097670403, Final residual = 7.6557999e-05, No Iterations 12
GAMG:  Solving for p, Initial residual = 0.00095990158, Final residual = 8.3986558e-06, No Iterations 7
GAMG:  Solving for p, Initial residual = 0.0002550749, Final residual = 1.0778978e-06, No Iterations 8
time step continuity errors : sum local = 2.5137444e-06, global = 6.0899612e-07, cumulative = -1.5948824e-05
DILUPBiCGStab:  Solving for nuTilda, Initial residual = 0.00010133842, Final residual = 1.2485105e-06, No Iterations 1
ExecutionTime = 377.86 s  ClockTime = 378 s

forceCoeffs forceCoeffs write:
    Coefficient	Total	Pressure	Viscous	Internal
    Cd:	0.031304293	0.028809523	0.0024947699	0
    Cd(f):	0.018394204	0.017152131	0.0012420727	0
    Cd(r):	0.012910089	0.011657392	0.0012526972	0
    Cl:	0.0001916433	0.00018972153	1.921769e-06	0
    Cl(f):	6.829866e-05	0.00010190842	-3.3609764e-05	0
    Cl(r):	0.00012334464	8.7813102e-05	3.5531533e-05	0
    CmPitch:	-2.7522988e-05	7.0476613e-06	-3.4570649e-05	0
    CmRoll:	0.0027420572	0.0027473694	-5.3122421e-06	0
    CmYaw:	-0.0057343082	-0.0065896426	0.00085533437	0
    Cs:	0.19748032	0.19785175	-0.00037142987	0
    Cs(f):	0.093005854	0.092336235	0.00066961943	0
    Cs(r):	0.10447447	0.10551552	-0.0010410493	0

    writing force and moment coefficient files.

Time = 34

DILUPBiCGStab:  Solving for Ux, Initial residual = 7.023745e-05, Final residual = 3.540704e-07, No Iterations 1
DILUPBiCGStab:  Solving for Uy, Initial residual = 0.00080912229, Final residual = 8.7794233e-06, No Iterations 1
DILUPBiCGStab:  Solving for Uz, Initial residual = 2.6538353e-05, Final residual = 2.7339974e-07, No Iterations 1
DILUPBiCGStab:  Solving for h, Initial residual = 0.00046734347, Final residual = 4.5799217e-06, No Iterations 1
GAMG:  Solving for p, Initial residual = 0.0081475823, Final residual = 5.8890838e-05, No Iterations 10
GAMG:  Solving for p, Initial residual = 0.00085677852, Final residual = 7.1307645e-06, No Iterations 7
GAMG:  Solving for p, Initial residual = 0.00023447396, Final residual = 9.782928e-07, No Iterations 8
time step continuity errors : sum local = 2.1067203e-06, global = 6.1097241e-07, cumulative = -1.5337852e-05
DILUPBiCGStab:  Solving for nuTilda, Initial residual = 9.619623e-05, Final residual = 1.1864716e-06, No Iterations 1
ExecutionTime = 389.32 s  ClockTime = 390 s

forceCoeffs forceCoeffs write:
    Coefficient	Total	Pressure	Viscous	Internal
    Cd:	0.030952049	0.028472753	0.0024792958	0
    Cd(f):	0.018192147	0.016957978	0.0012341692	0
    Cd(r):	0.012759902	0.011514775	0.0012451265	0
    Cl:	0.00031447526	0.00031238884	2.0864119e-06	0
    Cl(f):	0.00010111085	0.00013445272	-3.3341874e-05	0
    Cl(r):	0.00021336441	0.00017793612	3.5428286e-05	0
    CmPitch:	-5.6126779e-05	-2.1741699e-05	-3.438508e-05	0
    CmRoll:	0.0027161227	0.0027216013	-5.4786599e-06	0
    CmYaw:	-0.0058370787	-0.0066897352	0.00085265652	0
    Cs:	0.19750549	0.1978848	-0.00037931082	0
    Cs(f):	0.092915667	0.092252666	0.0006630011	0
    Cs(r):	0.10458982	0.10563214	-0.0010423119	0

    writing force and moment coefficient files.

Time = 35

DILUPBiCGStab:  Solving for Ux, Initial residual = 7.82282e-05, Final residual = 2.3261747e-07, No Iterations 1
DILUPBiCGStab:  Solving for Uy, Initial residual = 0.00082940676, Final residual = 7.30732e-06, No Iterations 1
DILUPBiCGStab:  Solving for Uz, Initial residual = 2.5634234e-05, Final residual = 2.665692e-07, No Iterations 1
DILUPBiCGStab:  Solving for h, Initial residual = 0.00041954547, Final residual = 3.7790472e-06, No Iterations 1
GAMG:  Solving for p, Initial residual = 0.0070709827, Final residual = 6.7336552e-05, No Iterations 11
GAMG:  Solving for p, Initial residual = 0.00084157758, Final residual = 3.7588976e-06, No Iterations 9
GAMG:  Solving for p, Initial residual = 0.00022155912, Final residual = 1.995823e-06, No Iterations 4
time step continuity errors : sum local = 3.7026035e-06, global = -6.0734562e-07, cumulative = -1.5945197e-05
DILUPBiCGStab:  Solving for nuTilda, Initial residual = 9.163097e-05, Final residual = 1.1276817e-06, No Iterations 1
ExecutionTime = 400.73 s  ClockTime = 401 s

forceCoeffs forceCoeffs write:
    Coefficient	Total	Pressure	Viscous	Internal
    Cd:	0.030266964	0.027802776	0.0024641887	0
    Cd(f):	0.017815242	0.016588736	0.0012265061	0
    Cd(r):	0.012451723	0.01121404	0.0012376826	0
    Cl:	0.00045406139	0.00045199508	2.0663048e-06	0
    Cl(f):	0.00013208297	0.00016532026	-3.3237292e-05	0
    Cl(r):	0.00032197842	0.00028667482	3.5303597e-05	0
    CmPitch:	-9.4947723e-05	-6.0677278e-05	-3.4270444e-05	0
    CmRoll:	0.0026817597	0.002687348	-5.5882648e-06	0
    CmYaw:	-0.0059862847	-0.0068362328	0.00084994814	0
    Cs:	0.19753348	0.19792062	-0.00038713954	0
    Cs(f):	0.092780454	0.092124076	0.00065637838	0
    Cs(r):	0.10475302	0.10579654	-0.0010435179	0

    writing force and moment coefficient files.

Time = 36

DILUPBiCGStab:  Solving for Ux, Initial residual = 6.7701099e-05, Final residual = 2.1051791e-07, No Iterations 1
DILUPBiCGStab:  Solving for Uy, Initial residual = 0.00079284966, Final residual = 6.8613702e-06, No Iterations 1
DILUPBiCGStab:  Solving for Uz, Initial residual = 2.404513e-05, Final residual = 2.6134254e-07, No Iterations 1
DILUPBiCGStab:  Solving for h, Initial residual = 0.00037943774, Final residual = 3.1787514e-06, No Iterations 1
GAMG:  Solving for p, Initial residual = 0.0066643851, Final residual = 6.3787942e-05, No Iterations 12
GAMG:  Solving for p, Initial residual = 0.0010065766, Final residual = 9.3189047e-06, No Iterations 7
GAMG:  Solving for p, Initial residual = 0.00026971329, Final residual = 1.0001712e-06, No Iterations 8
time step continuity errors : sum local = 1.5544797e-06, global = -3.6506784e-07, cumulative = -1.6310265e-05
DILUPBiCGStab:  Solving for nuTilda, Initial residual = 8.7632502e-05, Final residual = 1.0724078e-06, No Iterations 1
ExecutionTime = 412.5 s  ClockTime = 413 s

forceCoeffs forceCoeffs write:
    Coefficient	Total	Pressure	Viscous	Internal
    Cd:	0.029574912	0.02712548	0.0024494313	0
    Cd(f):	0.017431563	0.016212506	0.0012190579	0
    Cd(r):	0.012143348	0.010912975	0.0012303734	0
    Cl:	0.00058801338	0.00058609506	1.9183175e-06	0
    Cl(f):	0.00015576682	0.00018900757	-3.3240751e-05	0
    Cl(r):	0.00043224655	0.00039708749	3.5159068e-05	0
    CmPitch:	-0.00013823987	-0.00010403996	-3.419991e-05	0
    CmRoll:	0.0026441075	0.0026497653	-5.6577495e-06	0
    CmYaw:	-0.0061204671	-0.006967703	0.0008472359	0
    Cs:	0.19756856	0.19796345	-0.00039489441	0
    Cs(f):	0.092663812	0.092014023	0.00064978869	0
    Cs(r):	0.10490475	0.10594943	-0.0010446831	0

    writing force and moment coefficient files.

Time = 37

DILUPBiCGStab:  Solving for Ux, Initial residual = 4.9645927e-05, Final residual = 2.8925086e-07, No Iterations 1
DILUPBiCGStab:  Solving for Uy, Initial residual = 0.00071434753, Final residual = 7.6832084e-06, No Iterations 1
DILUPBiCGStab:  Solving for Uz, Initial residual = 2.2070692e-05, Final residual = 2.5037736e-07, No Iterations 1
DILUPBiCGStab:  Solving for h, Initial residual = 0.00034900406, Final residual = 2.7599871e-06, No Iterations 1
GAMG:  Solving for p, Initial residual = 0.0068450166, Final residual = 5.0379737e-05, No Iterations 13
GAMG:  Solving for p, Initial residual = 0.0011214679, Final residual = 7.569412e-06, No Iterations 8
GAMG:  Solving for p, Initial residual = 0.00030899117, Final residual = 3.0170623e-06, No Iterations 3
time step continuity errors : sum local = 4.0876953e-06, global = -1.7609408e-07, cumulative = -1.6486359e-05
DILUPBiCGStab:  Solving for nuTilda, Initial residual = 8.3951029e-05, Final residual = 1.0145856e-06, No Iterations 1
ExecutionTime = 423.86 s  ClockTime = 424 s

forceCoeffs forceCoeffs write:
    Coefficient	Total	Pressure	Viscous	Internal
    Cd:	0.02911821	0.026683118	0.0024350925	0
    Cd(f):	0.017162092	0.015950259	0.0012118327	0
    Cd(r):	0.011956118	0.010732859	0.0012232597	0
    Cl:	0.00071467503	0.00071294875	1.7262793e-06	0
    Cl(f):	0.0001805549	0.000213837	-3.3282101e-05	0
    Cl(r):	0.00053412013	0.00049911175	3.500838e-05	0
    CmPitch:	-0.00017678261	-0.00014263737	-3.414524e-05	0
    CmRoll:	0.0026029868	0.0026087003	-5.7135194e-06	0
    CmYaw:	-0.0061983639	-0.0070429079	0.00084454395	0
    Cs:	0.19760407	0.19800658	-0.0004025072	0
    Cs(f):	0.092603672	0.091960382	0.00064329035	0
    Cs(r):	0.1050004	0.1060462	-0.0010457975	0

    writing force and moment coefficient files.

Time = 38

DILUPBiCGStab:  Solving for Ux, Initial residual = 3.9589536e-05, Final residual = 3.6344213e-07, No Iterations 1
DILUPBiCGStab:  Solving for Uy, Initial residual = 0.00064596196, Final residual = 8.0851166e-06, No Iterations 1
DILUPBiCGStab:  Solving for Uz, Initial residual = 2.0271319e-05, Final residual = 2.332702e-07, No Iterations 1
DILUPBiCGStab:  Solving for h, Initial residual = 0.00033005695, Final residual = 2.4906567e-06, No Iterations 1
GAMG:  Solving for p, Initial residual = 0.0068914865, Final residual = 4.1984344e-05, No Iterations 13
GAMG:  Solving for p, Initial residual = 0.0010636044, Final residual = 8.9463698e-06, No Iterations 7
GAMG:  Solving for p, Initial residual = 0.00030295984, Final residual = 2.6190295e-06, No Iterations 4
time step continuity errors : sum local = 3.4438207e-06, global = -9.2864235e-07, cumulative = -1.7415002e-05
DILUPBiCGStab:  Solving for nuTilda, Initial residual = 8.0795094e-05, Final residual = 9.558013e-07, No Iterations 1
ExecutionTime = 435.2 s  ClockTime = 435 s

forceCoeffs forceCoeffs write:
    Coefficient	Total	Pressure	Viscous	Internal
    Cd:	0.028991113	0.026569898	0.002421215	0
    Cd(f):	0.017057325	0.015852497	0.001204828	0
    Cd(r):	0.011933788	0.010717401	0.001216387	0
    Cl:	0.00082930172	0.00082773109	1.5706235e-06	0
    Cl(f):	0.00021118405	0.00024447976	-3.3295717e-05	0
    Cl(r):	0.00061811767	0.00058325133	3.4866341e-05	0
    CmPitch:	-0.00020346681	-0.00016938578	-3.4081029e-05	0
    CmRoll:	0.0025617681	0.0025675476	-5.7795163e-06	0
    CmYaw:	-0.0062078292	-0.0070497276	0.00084189846	0
    Cs:	0.19762874	0.19803864	-0.0004099001	0
    Cs(f):	0.092606543	0.091969595	0.00063694841	0
    Cs(r):	0.1050222	0.10606905	-0.0010468485	0

    writing force and moment coefficient files.

Time = 39

DILUPBiCGStab:  Solving for Ux, Initial residual = 5.2505759e-05, Final residual = 3.3222081e-07, No Iterations 1
DILUPBiCGStab:  Solving for Uy, Initial residual = 0.00062293976, Final residual = 7.1316185e-06, No Iterations 1
DILUPBiCGStab:  Solving for Uz, Initial residual = 1.9257486e-05, Final residual = 2.1647425e-07, No Iterations 1
DILUPBiCGStab:  Solving for h, Initial residual = 0.00031118555, Final residual = 2.3463354e-06, No Iterations 1
GAMG:  Solving for p, Initial residual = 0.0065812292, Final residual = 4.3180257e-05, No Iterations 10
GAMG:  Solving for p, Initial residual = 0.00085631575, Final residual = 7.5059173e-06, No Iterations 7
GAMG:  Solving for p, Initial residual = 0.000236874, Final residual = 1.1690097e-06, No Iterations 8
time step continuity errors : sum local = 1.6642665e-06, global = -5.055828e-07, cumulative = -1.7920584e-05
DILUPBiCGStab:  Solving for nuTilda, Initial residual = 7.7896471e-05, Final residual = 8.9579023e-07, No Iterations 1
ExecutionTime = 446.78 s  ClockTime = 447 s

forceCoeffs forceCoeffs write:
    Coefficient	Total	Pressure	Viscous	Internal
    Cd:	0.029149039	0.026741119	0.0024079197	0
    Cd(f):	0.017102688	0.015904598	0.0011980898	0
    Cd(r):	0.012046351	0.010836521	0.0012098299	0
    Cl:	0.00091719979	0.00091569799	1.5018052e-06	0
    Cl(f):	0.00024460904	0.00027784886	-3.323982e-05	0
    Cl(r):	0.00067259075	0.00063784913	3.4741625e-05	0
    CmPitch:	-0.00021399086	-0.00018000013	-3.3990722e-05	0
    CmRoll:	0.0025281687	0.0025340387	-5.870023e-06	0
    CmYaw:	-0.0061633955	-0.0070027104	0.00083931489	0
    Cs:	0.19763518	0.1980522	-0.00041701183	0
    Cs(f):	0.092654197	0.092023388	0.00063080897	0
    Cs(r):	0.10498099	0.10602881	-0.0010478208	0

    writing force and moment coefficient files.

Time = 40

DILUPBiCGStab:  Solving for Ux, Initial residual = 6.0317057e-05, Final residual = 2.1144315e-07, No Iterations 1
DILUPBiCGStab:  Solving for Uy, Initial residual = 0.00063979818, Final residual = 6.1799934e-06, No Iterations 1
DILUPBiCGStab:  Solving for Uz, Initial residual = 1.9334096e-05, Final residual = 2.0863915e-07, No Iterations 1
DILUPBiCGStab:  Solving for h, Initial residual = 0.00029550794, Final residual = 2.3108065e-06, No Iterations 1
GAMG:  Solving for p, Initial residual = 0.0061924641, Final residual = 4.5870891e-05, No Iterations 11
GAMG:  Solving for p, Initial residual = 0.00070570676, Final residual = 3.6212293e-06, No Iterations 8
GAMG:  Solving for p, Initial residual = 0.00018316694, Final residual = 1.564039e-06, No Iterations 4
time step continuity errors : sum local = 2.5353464e-06, global = 5.6841775e-07, cumulative = -1.7352167e-05
DILUPBiCGStab:  Solving for nuTilda, Initial residual = 7.539432e-05, Final residual = 8.3844374e-07, No Iterations 1
ExecutionTime = 457.93 s  ClockTime = 458 s

forceCoeffs forceCoeffs write:
    Coefficient	Total	Pressure	Viscous	Internal
    Cd:	0.029461201	0.02706603	0.0023951718	0
    Cd(f):	0.017243106	0.016051509	0.0011915973	0
    Cd(r):	0.012218096	0.011014521	0.0012035744	0
    Cl:	0.00096050376	0.00095896763	1.5361271e-06	0
    Cl(f):	0.00027250181	0.00030559956	-3.3097754e-05	0
    Cl(r):	0.00068800195	0.00065336806	3.4633881e-05	0
    CmPitch:	-0.00020775007	-0.00017388425	-3.3865817e-05	0
    CmRoll:	0.0025125052	0.0025184937	-5.9885486e-06	0
    CmYaw:	-0.0060944977	-0.006931285	0.00083678727	0
    Cs:	0.19762267	0.19804649	-0.0004238212	0
    Cs(f):	0.092716836	0.092091959	0.00062487667	0
    Cs(r):	0.10490583	0.10595453	-0.0010486979	0

    writing force and moment coefficient files.

Time = 41

DILUPBiCGStab:  Solving for Ux, Initial residual = 5.3585859e-05, Final residual = 5.1466903e-06, No Iterations 1
DILUPBiCGStab:  Solving for Uy, Initial residual = 0.00067822925, Final residual = 6.020934e-06, No Iterations 1
DILUPBiCGStab:  Solving for Uz, Initial residual = 1.9981006e-05, Final residual = 2.08375e-07, No Iterations 1
DILUPBiCGStab:  Solving for h, Initial residual = 0.00029257571, Final residual = 2.2576675e-06, No Iterations 1
GAMG:  Solving for p, Initial residual = 0.0058317893, Final residual = 5.5320514e-05, No Iterations 12
GAMG:  Solving for p, Initial residual = 0.0006447095, Final residual = 5.9231623e-06, No Iterations 7
GAMG:  Solving for p, Initial residual = 0.00017028582, Final residual = 6.9323287e-07, No Iterations 8
time step continuity errors : sum local = 1.2728798e-06, global = 3.4869226e-07, cumulative = -1.7003474e-05
DILUPBiCGStab:  Solving for nuTilda, Initial residual = 7.3037679e-05, Final residual = 7.8336663e-07, No Iterations 1
ExecutionTime = 469.72 s  ClockTime = 470 s

forceCoeffs forceCoeffs write:
    Coefficient	Total	Pressure	Viscous	Internal
    Cd:	0.029777758	0.027394498	0.0023832604	0
    Cd(f):	0.017403374	0.01621787	0.0011855033	0
    Cd(r):	0.012374384	0.011176627	0.0011977571	0
    Cl:	0.00096008464	0.00095843382	1.6508186e-06	0
    Cl(f):	0.00028833879	0.00032122906	-3.2890275e-05	0
    Cl(r):	0.00067174585	0.00063720476	3.4541094e-05	0
    CmPitch:	-0.00019170353	-0.00015798785	-3.3715685e-05	0
    CmRoll:	0.0025144946	0.0025206215	-6.1269252e-06	0
    CmYaw:	-0.006031586	-0.0068659698	0.00083438377	0
    Cs:	0.1975977	0.19802805	-0.00043034865	0
    Cs(f):	0.092767266	0.092148057	0.00061920944	0
    Cs(r):	0.10483044	0.10588	-0.0010495581	0

    writing force and moment coefficient files.

Time = 42

DILUPBiCGStab:  Solving for Ux, Initial residual = 3.9060208e-05, Final residual = 1.41985e-07, No Iterations 1
DILUPBiCGStab:  Solving for Uy, Initial residual = 0.00071697021, Final residual = 6.6433552e-06, No Iterations 1
DILUPBiCGStab:  Solving for Uz, Initial residual = 2.0502092e-05, Final residual = 2.100512e-07, No Iterations 1
DILUPBiCGStab:  Solving for h, Initial residual = 0.0002871702, Final residual = 2.5334313e-06, No Iterations 1
GAMG:  Solving for p, Initial residual = 0.0052727363, Final residual = 4.0605271e-05, No Iterations 13
GAMG:  Solving for p, Initial residual = 0.00056090606, Final residual = 2.6211314e-06, No Iterations 8
GAMG:  Solving for p, Initial residual = 0.00014985067, Final residual = 9.5303799e-07, No Iterations 4
time step continuity errors : sum local = 1.884272e-06, global = 3.9420538e-07, cumulative = -1.6609269e-05
DILUPBiCGStab:  Solving for nuTilda, Initial residual = 7.0993692e-05, Final residual = 7.3306883e-07, No Iterations 1
ExecutionTime = 481.26 s  ClockTime = 481 s

forceCoeffs forceCoeffs write:
    Coefficient	Total	Pressure	Viscous	Internal
    Cd:	0.029988327	0.027616789	0.0023715385	0
    Cd(f):	0.017521029	0.016341532	0.0011794968	0
    Cd(r):	0.012467298	0.011275257	0.0011920418	0
    Cl:	0.00093473366	0.00093292861	1.8050488e-06	0
    Cl(f):	0.00029473814	0.00032738001	-3.2641865e-05	0
    Cl(r):	0.00063999551	0.0006055486	3.4446913e-05	0
    CmPitch:	-0.00017262868	-0.00013908429	-3.3544389e-05	0
    CmRoll:	0.0025268652	0.0025331377	-6.2725127e-06	0
    CmYaw:	-0.0059952231	-0.0068271363	0.00083191313	0
    Cs:	0.1975746	0.19801125	-0.00043664897	0
    Cs(f):	0.092792077	0.092178489	0.00061358864	0
    Cs(r):	0.10478252	0.10583276	-0.0010502376	0

    writing force and moment coefficient files.

Time = 43

DILUPBiCGStab:  Solving for Ux, Initial residual = 2.6670734e-05, Final residual = 1.7798719e-07, No Iterations 1
DILUPBiCGStab:  Solving for Uy, Initial residual = 0.00075293237, Final residual = 7.6228481e-06, No Iterations 1
[...]
    Cs(r):	0.10612059	0.1071472	-0.0010266039	0

    writing force and moment coefficient files.

Time = 341

DILUPBiCGStab:  Solving for Ux, Initial residual = 1.2769453e-06, Final residual = 5.6127753e-08, No Iterations 1
DILUPBiCGStab:  Solving for Uy, Initial residual = 9.8190189e-05, Final residual = 3.8449349e-06, No Iterations 1
DILUPBiCGStab:  Solving for Uz, Initial residual = 1.3675244e-06, Final residual = 5.2421204e-08, No Iterations 1
DILUPBiCGStab:  Solving for h, Initial residual = 1.1235204e-05, Final residual = 4.0941258e-07, No Iterations 1
GAMG:  Solving for p, Initial residual = 0.00011776987, Final residual = 1.1291856e-06, No Iterations 6
GAMG:  Solving for p, Initial residual = 1.1548756e-05, Final residual = 1.0949467e-07, No Iterations 7
GAMG:  Solving for p, Initial residual = 2.2132177e-06, Final residual = 9.2760607e-08, No Iterations 2
time step continuity errors : sum local = 1.4047097e-07, global = 1.9246752e-08, cumulative = -1.4311895e-05
DILUPBiCGStab:  Solving for nuTilda, Initial residual = 7.8524402e-05, Final residual = 3.2904228e-06, No Iterations 1
ExecutionTime = 3591.69 s  ClockTime = 3592 s

forceCoeffs forceCoeffs write:
    Coefficient	Total	Pressure	Viscous	Internal
    Cd:	0.029519185	0.027465597	0.0020535877	0
    Cd(f):	0.01746923	0.016452308	0.0010169227	0
    Cd(r):	0.012049954	0.011013289	0.0010366651	0
    Cl:	0.00038469294	0.00038327381	1.4191329e-06	0
    Cl(f):	0.00023578045	0.00026401034	-2.8229887e-05	0
    Cl(r):	0.00014891249	0.00011926347	2.964902e-05	0
    CmPitch:	4.343398e-05	7.2373433e-05	-2.8939454e-05	0
    CmRoll:	0.002709638	0.0027195092	-9.8711971e-06	0
    CmYaw:	-0.0069629048	-0.007649353	0.00068644813	0
    Cs:	0.19831618	0.19899643	-0.00068024721	0
    Cs(f):	0.092195186	0.091848861	0.00034632453	0
    Cs(r):	0.106121	0.10714757	-0.0010265717	0

    writing force and moment coefficient files.

Time = 342

DILUPBiCGStab:  Solving for Ux, Initial residual = 1.2580246e-06, Final residual = 5.5340893e-08, No Iterations 1
DILUPBiCGStab:  Solving for Uy, Initial residual = 9.6560687e-05, Final residual = 3.7733961e-06, No Iterations 1
DILUPBiCGStab:  Solving for Uz, Initial residual = 1.3432278e-06, Final residual = 5.1569684e-08, No Iterations 1
DILUPBiCGStab:  Solving for h, Initial residual = 1.0999197e-05, Final residual = 4.0078252e-07, No Iterations 1
GAMG:  Solving for p, Initial residual = 0.0001156173, Final residual = 1.1233177e-06, No Iterations 6
GAMG:  Solving for p, Initial residual = 1.1452131e-05, Final residual = 1.079318e-07, No Iterations 7
GAMG:  Solving for p, Initial residual = 2.1921737e-06, Final residual = 9.1530314e-08, No Iterations 2
time step continuity errors : sum local = 1.3860764e-07, global = 1.8634576e-08, cumulative = -1.429326e-05
DILUPBiCGStab:  Solving for nuTilda, Initial residual = 7.7028523e-05, Final residual = 3.2407565e-06, No Iterations 1
ExecutionTime = 3601.26 s  ClockTime = 3601 s

forceCoeffs forceCoeffs write:
    Coefficient	Total	Pressure	Viscous	Internal
    Cd:	0.029519612	0.027466068	0.0020535442	0
    Cd(f):	0.017469472	0.016452571	0.0010169009	0
    Cd(r):	0.01205014	0.011013497	0.0010366433	0
    Cl:	0.00038461658	0.00038319694	1.4196424e-06	0
    Cl(f):	0.00023573993	0.0002639687	-2.8228763e-05	0
    Cl(r):	0.00014887665	0.00011922825	2.9648406e-05	0
    CmPitch:	4.343164e-05	7.2370224e-05	-2.8938584e-05	0
    CmRoll:	0.0027096658	0.002719537	-9.8711721e-06	0
    CmYaw:	-0.0069630749	-0.0076495124	0.00068643752	0
    Cs:	0.19831661	0.19899684	-0.00068023676	0
    Cs(f):	0.092195229	0.09184891	0.00034631914	0
    Cs(r):	0.10612138	0.10714793	-0.0010265559	0

    writing force and moment coefficient files.

Time = 343

DILUPBiCGStab:  Solving for Ux, Initial residual = 1.2394543e-06, Final residual = 5.4586685e-08, No Iterations 1
DILUPBiCGStab:  Solving for Uy, Initial residual = 9.4950249e-05, Final residual = 3.7042055e-06, No Iterations 1
DILUPBiCGStab:  Solving for Uz, Initial residual = 1.3193126e-06, Final residual = 5.0743892e-08, No Iterations 1
DILUPBiCGStab:  Solving for h, Initial residual = 1.076795e-05, Final residual = 3.9245207e-07, No Iterations 1
GAMG:  Solving for p, Initial residual = 0.00011355187, Final residual = 1.1174999e-06, No Iterations 6
GAMG:  Solving for p, Initial residual = 1.1357731e-05, Final residual = 1.0573062e-07, No Iterations 7
GAMG:  Solving for p, Initial residual = 2.1727526e-06, Final residual = 9.0423472e-08, No Iterations 2
time step continuity errors : sum local = 1.3693129e-07, global = 1.7967698e-08, cumulative = -1.4275293e-05
DILUPBiCGStab:  Solving for nuTilda, Initial residual = 7.5575402e-05, Final residual = 3.1927234e-06, No Iterations 1
ExecutionTime = 3610.67 s  ClockTime = 3611 s

forceCoeffs forceCoeffs write:
    Coefficient	Total	Pressure	Viscous	Internal
    Cd:	0.029519992	0.027466533	0.0020534598	0
    Cd(f):	0.017469689	0.01645283	0.0010168588	0
    Cd(r):	0.012050303	0.011013702	0.001036601	0
    Cl:	0.00038454035	0.00038312042	1.4199308e-06	0
    Cl(f):	0.00023569904	0.00026392625	-2.8227214e-05	0
    Cl(r):	0.00014884131	0.00011919417	2.9647144e-05	0
    CmPitch:	4.3428864e-05	7.2366043e-05	-2.8937179e-05	0
    CmRoll:	0.0027096928	0.0027195639	-9.8710734e-06	0
    CmYaw:	-0.0069632545	-0.0076496704	0.00068641593	0
    Cs:	0.19831704	0.19899726	-0.00068021625	0
    Cs(f):	0.092195266	0.091848958	0.00034630781	0
    Cs(r):	0.10612177	0.1071483	-0.0010265241	0

    writing force and moment coefficient files.

Time = 344

DILUPBiCGStab:  Solving for Ux, Initial residual = 1.2212356e-06, Final residual = 5.3857697e-08, No Iterations 1
DILUPBiCGStab:  Solving for Uy, Initial residual = 9.3359725e-05, Final residual = 3.6372638e-06, No Iterations 1
DILUPBiCGStab:  Solving for Uz, Initial residual = 1.2957684e-06, Final residual = 4.9946661e-08, No Iterations 1
DILUPBiCGStab:  Solving for h, Initial residual = 1.0540909e-05, Final residual = 3.8438856e-07, No Iterations 1
GAMG:  Solving for p, Initial residual = 0.00011154645, Final residual = 1.1118962e-06, No Iterations 6
GAMG:  Solving for p, Initial residual = 1.126251e-05, Final residual = 1.0433875e-07, No Iterations 7
GAMG:  Solving for p, Initial residual = 2.1530186e-06, Final residual = 8.9051303e-08, No Iterations 2
time step continuity errors : sum local = 1.3485318e-07, global = 1.7303212e-08, cumulative = -1.4257989e-05
DILUPBiCGStab:  Solving for nuTilda, Initial residual = 7.4142247e-05, Final residual = 3.1444442e-06, No Iterations 1
ExecutionTime = 3620.1 s  ClockTime = 3620 s

forceCoeffs forceCoeffs write:
    Coefficient	Total	Pressure	Viscous	Internal
    Cd:	0.029520407	0.027466991	0.0020534162	0
    Cd(f):	0.017469924	0.016453087	0.001016837	0
    Cd(r):	0.012050484	0.011013904	0.0010365791	0
    Cl:	0.00038446535	0.00038304492	1.4204292e-06	0
    Cl(f):	0.00023565966	0.00026388573	-2.8226078e-05	0
    Cl(r):	0.00014880569	0.00011915918	2.9646507e-05	0
    CmPitch:	4.3426982e-05	7.2363275e-05	-2.8936293e-05	0
    CmRoll:	0.00270972	0.0027195911	-9.8710494e-06	0
    CmYaw:	-0.0069634216	-0.0076498271	0.00068640552	0
    Cs:	0.19831746	0.19899766	-0.00068020584	0
    Cs(f):	0.092195308	0.091849005	0.0003463026	0
    Cs(r):	0.10612215	0.10714866	-0.0010265084	0

    writing force and moment coefficient files.

Time = 345

DILUPBiCGStab:  Solving for Ux, Initial residual = 1.2034192e-06, Final residual = 5.3149616e-08, No Iterations 1
DILUPBiCGStab:  Solving for Uy, Initial residual = 9.178973e-05, Final residual = 3.5726281e-06, No Iterations 1
DILUPBiCGStab:  Solving for Uz, Initial residual = 1.272585e-06, Final residual = 4.9170742e-08, No Iterations 1
DILUPBiCGStab:  Solving for h, Initial residual = 1.0318498e-05, Final residual = 3.7651412e-07, No Iterations 1
GAMG:  Solving for p, Initial residual = 0.00010961286, Final residual = 5.3399733e-07, No Iterations 8
GAMG:  Solving for p, Initial residual = 1.0622784e-05, Final residual = 9.8493811e-08, No Iterations 7
GAMG:  Solving for p, Initial residual = 2.1349661e-06, Final residual = 6.9739431e-08, No Iterations 2
time step continuity errors : sum local = 1.0560887e-07, global = 1.1040989e-08, cumulative = -1.4246948e-05
DILUPBiCGStab:  Solving for nuTilda, Initial residual = 7.2748948e-05, Final residual = 3.0976854e-06, No Iterations 1
ExecutionTime = 3629.97 s  ClockTime = 3630 s

forceCoeffs forceCoeffs write:
    Coefficient	Total	Pressure	Viscous	Internal
    Cd:	0.029520779	0.027467444	0.0020533346	0
    Cd(f):	0.017470136	0.01645334	0.0010167964	0
    Cd(r):	0.012050642	0.011014104	0.0010365382	0
    Cl:	0.00038439048	0.0003829698	1.4206816e-06	0
    Cl(f):	0.00023562101	0.0002638456	-2.8224591e-05	0
    Cl(r):	0.00014876947	0.0001191242	2.9645273e-05	0
    CmPitch:	4.3425771e-05	7.2360704e-05	-2.8934932e-05	0
    CmRoll:	0.002709747	0.002719618	-9.8709401e-06	0
    CmYaw:	-0.006963598	-0.0076499823	0.0006863843	0
    Cs:	0.19831788	0.19899807	-0.00068018553	0
    Cs(f):	0.092195343	0.091849052	0.00034629153	0
    Cs(r):	0.10612254	0.10714902	-0.0010264771	0

    writing force and moment coefficient files.

Time = 346

DILUPBiCGStab:  Solving for Ux, Initial residual = 1.1859741e-06, Final residual = 5.2457492e-08, No Iterations 1
DILUPBiCGStab:  Solving for Uy, Initial residual = 9.0234798e-05, Final residual = 3.509575e-06, No Iterations 1
DILUPBiCGStab:  Solving for Uz, Initial residual = 1.2497763e-06, Final residual = 4.8420391e-08, No Iterations 1
DILUPBiCGStab:  Solving for h, Initial residual = 1.0100986e-05, Final residual = 3.6884876e-07, No Iterations 1
GAMG:  Solving for p, Initial residual = 0.00010773822, Final residual = 5.2997179e-07, No Iterations 8
GAMG:  Solving for p, Initial residual = 1.0542982e-05, Final residual = 9.5581765e-08, No Iterations 7
GAMG:  Solving for p, Initial residual = 2.1140667e-06, Final residual = 6.92144e-08, No Iterations 2
time step continuity errors : sum local = 1.048136e-07, global = 1.1016093e-08, cumulative = -1.4235932e-05
DILUPBiCGStab:  Solving for nuTilda, Initial residual = 7.1370211e-05, Final residual = 3.0511452e-06, No Iterations 1
ExecutionTime = 3639.75 s  ClockTime = 3640 s

forceCoeffs forceCoeffs write:
    Coefficient	Total	Pressure	Viscous	Internal
    Cd:	0.029521185	0.027467891	0.0020532932	0
    Cd(f):	0.017470367	0.016453591	0.0010167757	0
    Cd(r):	0.012050818	0.0110143	0.0010365175	0
    Cl:	0.00038431571	0.00038289452	1.4211867e-06	0
    Cl(f):	0.00023558375	0.00026380726	-2.8223505e-05	0
    Cl(r):	0.00014873196	0.00011908726	2.9644691e-05	0
    CmPitch:	4.3425899e-05	7.2359998e-05	-2.8934098e-05	0
    CmRoll:	0.0027097747	0.0027196456	-9.870916e-06	0
    CmYaw:	-0.0069637619	-0.0076501363	0.00068637439	0
    Cs:	0.19831829	0.19899847	-0.00068017537	0
    Cs(f):	0.092195385	0.091849098	0.0003462867	0
    Cs(r):	0.10612291	0.10714937	-0.0010264621	0

    writing force and moment coefficient files.

Time = 347

DILUPBiCGStab:  Solving for Ux, Initial residual = 1.1689387e-06, Final residual = 5.1787936e-08, No Iterations 1
DILUPBiCGStab:  Solving for Uy, Initial residual = 8.8706732e-05, Final residual = 3.4491288e-06, No Iterations 1
DILUPBiCGStab:  Solving for Uz, Initial residual = 1.227322e-06, Final residual = 4.7688945e-08, No Iterations 1
DILUPBiCGStab:  Solving for h, Initial residual = 9.8877622e-06, Final residual = 3.6138586e-07, No Iterations 1
GAMG:  Solving for p, Initial residual = 0.00010594224, Final residual = 5.2551191e-07, No Iterations 8
GAMG:  Solving for p, Initial residual = 1.0462864e-05, Final residual = 9.4123909e-08, No Iterations 7
GAMG:  Solving for p, Initial residual = 2.0974845e-06, Final residual = 6.8555133e-08, No Iterations 2
time step continuity errors : sum local = 1.0381498e-07, global = 1.0941505e-08, cumulative = -1.4224991e-05
DILUPBiCGStab:  Solving for nuTilda, Initial residual = 7.0024564e-05, Final residual = 3.0060549e-06, No Iterations 1
ExecutionTime = 3649.54 s  ClockTime = 3650 s

forceCoeffs forceCoeffs write:
    Coefficient	Total	Pressure	Viscous	Internal
    Cd:	0.029521545	0.027468334	0.002053211	0
    Cd(f):	0.017470574	0.016453839	0.0010167347	0
    Cd(r):	0.012050971	0.011014495	0.0010364763	0
    Cl:	0.00038424201	0.00038282054	1.4214628e-06	0
    Cl(f):	0.00023554692	0.00026376892	-2.8222001e-05	0
    Cl(r):	0.00014869508	0.00011905162	2.9643464e-05	0
    CmPitch:	4.3425919e-05	7.2358652e-05	-2.8932733e-05	0
    CmRoll:	0.0027098014	0.0027196722	-9.8708136e-06	0
    CmYaw:	-0.0069639354	-0.0076502888	0.00068635345	0
    Cs:	0.19831871	0.19899887	-0.00068015514	0
    Cs(f):	0.09219542	0.091849144	0.00034627588	0
    Cs(r):	0.10612329	0.10714972	-0.001026431	0

    writing force and moment coefficient files.

Time = 348

DILUPBiCGStab:  Solving for Ux, Initial residual = 1.1522703e-06, Final residual = 5.114557e-08, No Iterations 1
DILUPBiCGStab:  Solving for Uy, Initial residual = 8.7205004e-05, Final residual = 3.3912355e-06, No Iterations 1
DILUPBiCGStab:  Solving for Uz, Initial residual = 1.2052207e-06, Final residual = 4.6982672e-08, No Iterations 1
DILUPBiCGStab:  Solving for h, Initial residual = 9.679366e-06, Final residual = 3.5413033e-07, No Iterations 1
GAMG:  Solving for p, Initial residual = 0.00010417634, Final residual = 5.2151603e-07, No Iterations 8
GAMG:  Solving for p, Initial residual = 1.0374345e-05, Final residual = 9.3192481e-08, No Iterations 7
GAMG:  Solving for p, Initial residual = 2.0777739e-06, Final residual = 6.7873331e-08, No Iterations 2
time step continuity errors : sum local = 1.0278229e-07, global = 1.0809513e-08, cumulative = -1.4214181e-05
DILUPBiCGStab:  Solving for nuTilda, Initial residual = 6.8693105e-05, Final residual = 2.9610236e-06, No Iterations 1
ExecutionTime = 3659.32 s  ClockTime = 3660 s

forceCoeffs forceCoeffs write:
    Coefficient	Total	Pressure	Viscous	Internal
    Cd:	0.02952194	0.027468771	0.0020531695	0
    Cd(f):	0.017470798	0.016454084	0.001016714	0
    Cd(r):	0.012051142	0.011014686	0.0010364556	0
    Cl:	0.00038416958	0.00038274764	1.421949e-06	0
    Cl(f):	0.00023551083	0.00026373173	-2.8220906e-05	0
    Cl(r):	0.00014865876	0.0001190159	2.9642855e-05	0
    CmPitch:	4.3426034e-05	7.2357914e-05	-2.893188e-05	0
    CmRoll:	0.0027098281	0.0027196988	-9.8707892e-06	0
    CmYaw:	-0.0069640966	-0.0076504403	0.00068634371	0
    Cs:	0.19831912	0.19899926	-0.00068014502	0
    Cs(f):	0.092195461	0.09184919	0.0003462712	0
    Cs(r):	0.10612365	0.10715007	-0.0010264162	0

    writing force and moment coefficient files.

Time = 349

DILUPBiCGStab:  Solving for Ux, Initial residual = 1.1359409e-06, Final residual = 5.05246e-08, No Iterations 1
DILUPBiCGStab:  Solving for Uy, Initial residual = 8.5729176e-05, Final residual = 3.3357385e-06, No Iterations 1
DILUPBiCGStab:  Solving for Uz, Initial residual = 1.1834715e-06, Final residual = 4.6297372e-08, No Iterations 1
DILUPBiCGStab:  Solving for h, Initial residual = 9.4761402e-06, Final residual = 3.470853e-07, No Iterations 1
GAMG:  Solving for p, Initial residual = 0.00010245959, Final residual = 5.1812915e-07, No Iterations 8
GAMG:  Solving for p, Initial residual = 1.0285533e-05, Final residual = 9.3208944e-08, No Iterations 7
GAMG:  Solving for p, Initial residual = 2.0629385e-06, Final residual = 6.7262291e-08, No Iterations 2
time step continuity errors : sum local = 1.0185674e-07, global = 1.0677487e-08, cumulative = -1.4203504e-05
DILUPBiCGStab:  Solving for nuTilda, Initial residual = 6.7395916e-05, Final residual = 2.9172691e-06, No Iterations 1
ExecutionTime = 3669.12 s  ClockTime = 3669 s

forceCoeffs forceCoeffs write:
    Coefficient	Total	Pressure	Viscous	Internal
    Cd:	0.029522293	0.027469203	0.0020530901	0
    Cd(f):	0.017471001	0.016454327	0.0010166744	0
    Cd(r):	0.012051292	0.011014876	0.0010364157	0
    Cl:	0.00038409568	0.00038267348	1.4221983e-06	0
    Cl(f):	0.00023547341	0.00026369287	-2.8219457e-05	0
    Cl(r):	0.00014862227	0.00011898061	2.9641655e-05	0
    CmPitch:	4.3425574e-05	7.2356131e-05	-2.8930556e-05	0
    CmRoll:	0.0027098546	0.0027197253	-9.8706778e-06	0
    CmYaw:	-0.0069642674	-0.0076505905	0.00068632313	0
    Cs:	0.19831953	0.19899965	-0.000680125	0
    Cs(f):	0.092195496	0.091849236	0.00034626063	0
    Cs(r):	0.10612403	0.10715042	-0.0010263856	0

    writing force and moment coefficient files.

Time = 350

DILUPBiCGStab:  Solving for Ux, Initial residual = 1.1198528e-06, Final residual = 4.9922993e-08, No Iterations 1
DILUPBiCGStab:  Solving for Uy, Initial residual = 8.4277389e-05, Final residual = 3.2822906e-06, No Iterations 1
DILUPBiCGStab:  Solving for Uz, Initial residual = 1.1620816e-06, Final residual = 4.5636064e-08, No Iterations 1
DILUPBiCGStab:  Solving for h, Initial residual = 9.2779511e-06, Final residual = 3.4024002e-07, No Iterations 1
GAMG:  Solving for p, Initial residual = 0.00010076743, Final residual = 5.1569295e-07, No Iterations 8
GAMG:  Solving for p, Initial residual = 1.0191311e-05, Final residual = 9.3011897e-08, No Iterations 7
GAMG:  Solving for p, Initial residual = 2.0414771e-06, Final residual = 6.6525252e-08, No Iterations 2
time step continuity errors : sum local = 1.0074047e-07, global = 1.0528151e-08, cumulative = -1.4192976e-05
DILUPBiCGStab:  Solving for nuTilda, Initial residual = 6.6115702e-05, Final residual = 2.8734711e-06, No Iterations 1
ExecutionTime = 3678.98 s  ClockTime = 3679 s

forceCoeffs forceCoeffs write:
    Coefficient	Total	Pressure	Viscous	Internal
    Cd:	0.02952268	0.02746963	0.0020530508	0
    Cd(f):	0.017471222	0.016454568	0.0010166547	0
    Cd(r):	0.012051458	0.011015062	0.001036396	0
    Cl:	0.0003840206	0.00038259791	1.4226842e-06	0
    Cl(f):	0.00023543572	0.00026365413	-2.8218416e-05	0
    Cl(r):	0.00014858488	0.00011894378	2.96411e-05	0
    CmPitch:	4.342542e-05	7.2355178e-05	-2.8929758e-05	0
    CmRoll:	0.0027098822	0.0027197529	-9.8706507e-06	0
    CmYaw:	-0.0069644258	-0.0076507397	0.00068631392	0
    Cs:	0.19831992	0.19900004	-0.00068011516	0
    Cs(f):	0.092195537	0.09184928	0.00034625634	0
    Cs(r):	0.10612439	0.10715076	-0.0010263715	0

    writing force and moment coefficient files.

Time = 351

DILUPBiCGStab:  Solving for Ux, Initial residual = 1.1040139e-06, Final residual = 4.9335131e-08, No Iterations 1
DILUPBiCGStab:  Solving for Uy, Initial residual = 8.2847356e-05, Final residual = 3.2306201e-06, No Iterations 1
DILUPBiCGStab:  Solving for Uz, Initial residual = 1.1410585e-06, Final residual = 4.4993705e-08, No Iterations 1
DILUPBiCGStab:  Solving for h, Initial residual = 9.0845476e-06, Final residual = 3.3358807e-07, No Iterations 1
GAMG:  Solving for p, Initial residual = 9.9130535e-05, Final residual = 5.1403664e-07, No Iterations 8
GAMG:  Solving for p, Initial residual = 1.0116789e-05, Final residual = 9.1853727e-08, No Iterations 7
GAMG:  Solving for p, Initial residual = 2.025083e-06, Final residual = 6.5992475e-08, No Iterations 2
time step continuity errors : sum local = 9.9933587e-08, global = 1.0471629e-08, cumulative = -1.4182504e-05
DILUPBiCGStab:  Solving for nuTilda, Initial residual = 6.4871389e-05, Final residual = 2.8311418e-06, No Iterations 1
ExecutionTime = 3688.96 s  ClockTime = 3689 s


SIMPLE solution converged in 351 iterations

forceCoeffs forceCoeffs write:
    Coefficient	Total	Pressure	Viscous	Internal
    Cd:	0.029523023	0.027470052	0.0020529707	0
    Cd(f):	0.017471421	0.016454806	0.0010166148	0
    Cd(r):	0.012051602	0.011015246	0.0010363559	0
    Cl:	0.0003839444	0.00038252144	1.4229599e-06	0
    Cl(f):	0.0002353972	0.00026361414	-2.8216944e-05	0
    Cl(r):	0.0001485472	0.0001189073	2.9639904e-05	0
    CmPitch:	4.3425e-05	7.2353423e-05	-2.8928424e-05	0
    CmRoll:	0.0027099095	0.00271978	-9.870549e-06	0
    CmYaw:	-0.0069645941	-0.0076508877	0.0006862936	0
    Cs:	0.19832033	0.19900042	-0.00068009521	0
    Cs(f):	0.09219557	0.091849324	0.000346246	0
    Cs(r):	0.10612476	0.1071511	-0.0010263412	0

    writing force and moment coefficient files.

End

Finalising parallel run
