/*---------------------------------------------------------------------------*\
| =========                 |                                                 |
| \\      /  F ield         | OpenFOAM: The Open Source CFD Toolbox           |
|  \\    /   O peration     | Version:  2412                                  |
|   \\  /    A nd           | Website:  www.openfoam.com                      |
|    \\/     M anipulation  |                                                 |
\*---------------------------------------------------------------------------*/
Build  : _e5c6ccc3-20250814 OPENFOAM=2412 patch=250814 version=2412
Arch   : "LSB;label=32;scalar=64"
Exec   : snappyHexMesh -overwrite -parallel
Date   : Jan 25 2026
Time   : 21:50:45
Host   : Albert
PID    : 452025
I/O    : uncollated
Case   : /home/shafa/controlSurfaces/Blunt_Fin
nProcs : 6
Hosts  :
(
    (Albert 6)
)
Pstream initialized with:
    floatTransfer      : false
    maxCommsSize       : 0
    nProcsSimpleSum    : 0
    nonBlockingExchange: 0 (tuning: 0)
    exchange algorithm : 0
    commsType          : nonBlocking
    polling iterations : 0
trapFpe: Floating point exception trapping enabled (FOAM_SIGFPE).
fileModificationChecking : Monitoring run-time modified files using timeStampMaster (fileModificationSkew 5, maxFileModificationPolls 20)
allowSystemOperations : Allowing user-supplied system call operations

// * * * * * * * * * * * * * * * * * * * * * * * * * * * * * * * * * * * * * //
Create time

--> FOAM Warning : 
    From virtual void Foam::Time::readDict()
    in file db/Time/TimeIO.C at line 403
    Reading "system/controlDict" at line 17 to 103
    Disabled output compression for non-ascii format (inefficient/ineffective)
Create mesh for time = 0

Read mesh in = 0.51 s

Overall mesh bounding box  : (-1.033 -0.8264 0) (2.2057 0.8264 0.8963)
Relative tolerance         : 0.0001
Absolute matching distance : 0.00037449004

Reading refinement surfaces.
Read refinement surfaces in = 0 s

Reading refinement shells.
Refinement level according to distance to Fin.stl
    level 7 for all cells within 0.005 metre.
Read refinement shells in = 0.01 s

Setting refinement level of surface to be consistent with shells.
For geometry Fin.stl detected 0 uncached triangles out of 12
Checked shell refinement in = 0 s

Reading features.
Read edgeMesh Fin.eMesh
    points      : 8
    edges       : 11
    boundingBox : (-0.039464299 -0.0030479999 -1.40998e-18) (0.100236 0.00012700001 0.069849998)

Refinement level according to distance to "Fin.eMesh" (8 points, 11 edges).
    level 6 for all cells within 0 metre.
Read features in = 0 s


Determining initial surface intersections
-----------------------------------------

Edge intersection testing:
    Number of edges             : 10832000
    Number of edges to retest   : 0
    Number of intersected edges : 0
Edge intersection testing:
    Number of edges             : 10832000
    Number of edges to retest   : 10832000
    Number of intersected edges : 135
Calculated surface intersections in = 2.51 s

Initial mesh : cells:3584000  faces:10832000  points:3664521  unbalance:0.0073018973
Cells per refinement level:
    0	3584000
Setting refinement level of surface to be consistent with curvature.
Checked curvature refinement in = 0 s


Adding patches for surface regions
----------------------------------

Patch Type                Region                        
----- ----                ------                        
Fin:

4     wall                Fin                           

Added patches in = 0.14 s

Edge intersection testing:
    Number of edges             : 10832000
    Number of edges to retest   : 0
    Number of intersected edges : 135
Decomposition method scotch [6]

Refinement phase
----------------

Found point (-0.5 0 0.4) in cell 324307 on processor 4

Feature refinement iteration 0
------------------------------

Marked for refinement due to explicit features             : 66 cells.
Determined cells to refine in = 7.62 s
Selected for feature refinement : 66 cells (out of 3584000)
Edge intersection testing:
    Number of edges             : 10833677
    Number of edges to retest   : 2512
    Number of intersected edges : 335
Refined mesh in = 3.11 s
After refinement feature refinement iteration 0 : cells:3584462  faces:10833677  points:3665306  unbalance:0.0071720665
Cells per refinement level:
    0	3583934
    1	528
Balancing since max unbalance 0.0071720665 is larger than allowable 0
Balanced mesh in = 11.18 s
After balancing feature refinement iteration 0 : cells:3584462  faces:10833677  points:3665306  unbalance:0.008536288
Cells per refinement level:
    0	3583934
    1	528

Feature refinement iteration 1
------------------------------

Marked for refinement due to explicit features             : 137 cells.
Determined cells to refine in = 7.67 s
Selected for feature refinement : 200 cells (out of 3584462)
Edge intersection testing:
    Number of edges             : 10838825
    Number of edges to retest   : 7585
    Number of intersected edges : 920
Refined mesh in = 2.93 s
After refinement feature refinement iteration 1 : cells:3585862  faces:10838825  points:3667783  unbalance:0.00839073
Cells per refinement level:
    0	3583871
    1	895
    2	1096
Balancing since max unbalance 0.00839073 is larger than allowable 0
Balanced mesh in = 10.43 s
After balancing feature refinement iteration 1 : cells:3585862  faces:10838825  points:3667783  unbalance:0.0065964613
Cells per refinement level:
    0	3583871
    1	895
    2	1096

Feature refinement iteration 2
------------------------------

Marked for refinement due to explicit features             : 231 cells.
Determined cells to refine in = 7.78 s
Selected for feature refinement : 431 cells (out of 3585862)
Edge intersection testing:
    Number of edges             : 10849580
    Number of edges to retest   : 16815
    Number of intersected edges : 1703
Refined mesh in = 3.04 s
After refinement feature refinement iteration 2 : cells:3588879  faces:10849580  points:3672666  unbalance:0.0071479144
Cells per refinement level:
    0	3583846
    1	920
    2	2265
    3	1848
Balancing since max unbalance 0.0071479144 is larger than allowable 0
Balanced mesh in = 10.63 s
After balancing feature refinement iteration 2 : cells:3588879  faces:10849580  points:3672666  unbalance:0.0078918793
Cells per refinement level:
    0	3583846
    1	920
    2	2265
    3	1848

Feature refinement iteration 3
------------------------------

Marked for refinement due to explicit features             : 513 cells.
Determined cells to refine in = 7.58 s
Selected for feature refinement : 1024 cells (out of 3588879)
Edge intersection testing:
    Number of edges             : 10875392
    Number of edges to retest   : 40374
    Number of intersected edges : 5800
Refined mesh in = 2.97 s
After refinement feature refinement iteration 3 : cells:3596047  faces:10875392  points:3684646  unbalance:0.012498446
Cells per refinement level:
    0	3583818
    1	1029
    2	2773
    3	4675
    4	3752
Balancing since max unbalance 0.012498446 is larger than allowable 0
Balanced mesh in = 10.71 s
After balancing feature refinement iteration 3 : cells:3596047  faces:10875392  points:3684646  unbalance:0.0033400565
Cells per refinement level:
    0	3583818
    1	1029
    2	2773
    3	4675
    4	3752

Feature refinement iteration 4
------------------------------

Marked for refinement due to explicit features             : 1026 cells.
Determined cells to refine in = 7.73 s
Selected for feature refinement : 2068 cells (out of 3596047)
Edge intersection testing:
    Number of edges             : 10927460
    Number of edges to retest   : 82690
    Number of intersected edges : 13393
Refined mesh in = 2.94 s
After refinement feature refinement iteration 4 : cells:3610523  faces:10927460  points:3708778  unbalance:0.023373622
Cells per refinement level:
    0	3583813
    1	1026
    2	2876
    3	5767
    4	9497
    5	7544
Balancing since max unbalance 0.023373622 is larger than allowable 0
Balanced mesh in = 10.73 s
After balancing feature refinement iteration 4 : cells:3610523  faces:10927460  points:3708778  unbalance:0.0077974853
Cells per refinement level:
    0	3583813
    1	1026
    2	2876
    3	5767
    4	9497
    5	7544

Feature refinement iteration 5
------------------------------

Marked for refinement due to explicit features             : 2057 cells.
Determined cells to refine in = 8.09 s
Selected for feature refinement : 4796 cells (out of 3610523)
Edge intersection testing:
    Number of edges             : 11047985
    Number of edges to retest   : 187931
    Number of intersected edges : 19926
Refined mesh in = 3.08 s
After refinement feature refinement iteration 5 : cells:3644095  faces:11047985  points:3764211  unbalance:0.046248245
Cells per refinement level:
    0	3583780
    1	1203
    2	3294
    3	7166
    4	14422
    5	19046
    6	15184
Balancing since max unbalance 0.046248245 is larger than allowable 0
Balanced mesh in = 11 s
After balancing feature refinement iteration 5 : cells:3644095  faces:11047985  points:3764211  unbalance:0.0060176807
Cells per refinement level:
    0	3583780
    1	1203
    2	3294
    3	7166
    4	14422
    5	19046
    6	15184

Feature refinement iteration 6
------------------------------

Marked for refinement due to explicit features             : 16 cells.
Determined cells to refine in = 7.9 s
Selected for feature refinement : 24 cells (out of 3644095)
Edge intersection testing:
    Number of edges             : 11048606
    Number of edges to retest   : 1020
    Number of intersected edges : 20030
Refined mesh in = 2.95 s
After refinement feature refinement iteration 6 : cells:3644263  faces:11048606  points:3764511  unbalance:0.0059713034
Cells per refinement level:
    0	3583780
    1	1203
    2	3294
    3	7162
    4	14442
    5	19134
    6	15248
Balancing since max unbalance 0.0059713034 is larger than allowable 0
Balanced mesh in = 11.18 s
After balancing feature refinement iteration 6 : cells:3644263  faces:11048606  points:3764511  unbalance:0.0092773216
Cells per refinement level:
    0	3583780
    1	1203
    2	3294
    3	7162
    4	14442
    5	19134
    6	15248

Feature refinement iteration 7
------------------------------

Marked for refinement due to explicit features             : 331 cells.
Determined cells to refine in = 8.13 s
Selected for feature refinement : 610 cells (out of 3644263)
Edge intersection testing:
    Number of edges             : 11064230
    Number of edges to retest   : 22665
    Number of intersected edges : 21123
Refined mesh in = 2.89 s
After refinement feature refinement iteration 7 : cells:3648533  faces:11064230  points:3771920  unbalance:0.0094769596
Cells per refinement level:
    0	3583780
    1	1203
    2	3256
    3	7384
    4	14927
    5	20183
    6	17800
Balancing since max unbalance 0.0094769596 is larger than allowable 0
Balanced mesh in = 11.15 s
After balancing feature refinement iteration 7 : cells:3648533  faces:11064230  points:3771920  unbalance:0.0077655869
Cells per refinement level:
    0	3583780
    1	1203
    2	3256
    3	7384
    4	14927
    5	20183
    6	17800

Feature refinement iteration 8
------------------------------

Marked for refinement due to explicit features             : 26 cells.
Determined cells to refine in = 7.95 s
Selected for feature refinement : 48 cells (out of 3648533)
Edge intersection testing:
    Number of edges             : 11065451
    Number of edges to retest   : 1965
    Number of intersected edges : 21210
Refined mesh in = 2.85 s
After refinement feature refinement iteration 8 : cells:3648869  faces:11065451  points:3772494  unbalance:0.0076727885
Cells per refinement level:
    0	3583780
    1	1203
    2	3253
    3	7401
    4	14969
    5	20271
    6	17992
Balancing since max unbalance 0.0076727885 is larger than allowable 0
Balanced mesh in = 10.97 s
After balancing feature refinement iteration 8 : cells:3648869  faces:11065451  points:3772494  unbalance:0.0059774686
Cells per refinement level:
    0	3583780
    1	1203
    2	3253
    3	7401
    4	14969
    5	20271
    6	17992

Feature refinement iteration 9
------------------------------

Marked for refinement due to explicit features             : 5 cells.
Determined cells to refine in = 7.9 s
Selected for feature refinement : 8 cells (out of 3648869)
Edge intersection testing:
    Number of edges             : 11065652
    Number of edges to retest   : 421
    Number of intersected edges : 21224
Refined mesh in = 2.83 s
After refinement feature refinement iteration 9 : cells:3648925  faces:11065652  points:3772585  unbalance:0.0059620299
Cells per refinement level:
    0	3583780
    1	1203
    2	3253
    3	7400
    4	14974
    5	20291
    6	18024
Balancing since max unbalance 0.0059620299 is larger than allowable 0
Balanced mesh in = 11.01 s
After balancing feature refinement iteration 9 : cells:3648925  faces:11065652  points:3772585  unbalance:0.0088626102
Cells per refinement level:
    0	3583780
    1	1203
    2	3253
    3	7400
    4	14974
    5	20291
    6	18024

Feature refinement iteration 10
------------------------------

Marked for refinement due to explicit features             : 1 cells.
Determined cells to refine in = 7.97 s
Selected for feature refinement : 2 cells (out of 3648925)
Edge intersection testing:
    Number of edges             : 11065703
    Number of edges to retest   : 141
    Number of intersected edges : 21227
Refined mesh in = 2.87 s
After refinement feature refinement iteration 10 : cells:3648939  faces:11065703  points:3772609  unbalance:0.0088587395
Cells per refinement level:
    0	3583780
    1	1203
    2	3253
    3	7400
    4	14973
    5	20298
    6	18032
Balancing since max unbalance 0.0088587395 is larger than allowable 0
Balanced mesh in = 11.8 s
After balancing feature refinement iteration 10 : cells:3648939  faces:11065703  points:3772609  unbalance:0.0067342863
Cells per refinement level:
    0	3583780
    1	1203
    2	3253
    3	7400
    4	14973
    5	20298
    6	18032

Feature refinement iteration 11
------------------------------

Marked for refinement due to explicit features             : 0 cells.
Determined cells to refine in = 8.33 s
Selected for feature refinement : 0 cells (out of 3648939)
Stopping refining since too few cells selected.


Surface refinement iteration 0
------------------------------

Marked for refinement due to surface intersection          : 23257 cells.
Marked for refinement due to curvature/regions             : 0 cells.
Determined cells to refine in = 0.2 s
Selected for refinement : 25110 cells (out of 3648939)
Edge intersection testing:
    Number of edges             : 11657930
    Number of edges to retest   : 789840
    Number of intersected edges : 78507
Refined mesh in = 3.88 s
After refinement surface refinement iteration 0 : cells:3824709  faces:11657930  points:4017525  unbalance:0.22837737
Cells per refinement level:
    0	3583709
    1	1533
    2	4270
    3	12258
    4	26922
    5	59508
    6	78181
    7	58328
Balancing since max unbalance 0.22837737 is larger than allowable 0
Balanced mesh in = 12.3 s
After balancing surface refinement iteration 0 : cells:3824709  faces:11657930  points:4017525  unbalance:0.0082445488
Cells per refinement level:
    0	3583709
    1	1533
    2	4270
    3	12258
    4	26922
    5	59508
    6	78181
    7	58328

Surface refinement iteration 1
------------------------------

Marked for refinement due to surface intersection          : 66825 cells.
Marked for refinement due to curvature/regions             : 0 cells.
Determined cells to refine in = 0.45 s
Selected for refinement : 70024 cells (out of 3824709)
Edge intersection testing:
    Number of edges             : 13253075
    Number of edges to retest   : 2234563
    Number of intersected edges : 197736
Refined mesh in = 7.03 s
After refinement surface refinement iteration 1 : cells:4314877  faces:13253075  points:4631682  unbalance:0.56568727
Cells per refinement level:
    0	3583704
    1	1218
    2	6144
    3	16096
    4	48800
    5	111621
    6	219022
    7	328272
Balancing since max unbalance 0.56568727 is larger than allowable 0
Balanced mesh in = 16.43 s
After balancing surface refinement iteration 1 : cells:4314877  faces:13253075  points:4631682  unbalance:0.0069723888
Cells per refinement level:
    0	3583704
    1	1218
    2	6144
    3	16096
    4	48800
    5	111621
    6	219022
    7	328272

Surface refinement iteration 2
------------------------------

No cells marked for refinement since reached limit 4000000.
Determined cells to refine in = 0.27 s
Selected for refinement : 0 cells (out of 4314877)
Stopping refining since too few cells selected.


Removing mesh beyond surface intersections
------------------------------------------

Setting cellZones according to locationsInMesh:
Location : (-0.5 0 0.4)
    cellZone : none

For cellZone none found point (-0.5 0 0.4) in global region 0 out of 2 regions.
--> FOAM Warning : 
    From void Foam::meshRefinement::nearestFace(const Foam::labelUList&, const Foam::bitSet&, Foam::autoPtr<Foam::mapDistribute>&, Foam::labelList&, Foam::label) const
    in file meshRefinement/meshRefinement.C at line 527
    Did not visit some faces, e.g. face 0 at (0.42811637 -0.091033125 0.79546625)
Keeping all cells containing inside points
Selected for keeping : 4137728 cells.
Edge intersection testing:
    Number of edges             : 12755921
    Number of edges to retest   : 197538
    Number of intersected edges : 197736

Shell refinement iteration 0
----------------------------

No cells marked for refinement since reached limit 4000000.
Determined cells to refine in = 6.48 s
Selected for internal refinement : 23576 cells (out of 4137728)
Edge intersection testing:
    Number of edges             : 13285211
    Number of edges to retest   : 1123531
    Number of intersected edges : 209164
Refined mesh in = 6.16 s
After refinement shell refinement iteration 0 : cells:4302760  faces:13285211  points:4687700  unbalance:0.0090913739
Cells per refinement level:
    0	3583594
    1	1843
    2	6866
    3	15563
    4	40330
    5	89823
    6	225971
    7	338770
Balancing since max unbalance 0.0090913739 is larger than allowable 0
Balanced mesh in = 16.26 s
After balancing shell refinement iteration 0 : cells:4302760  faces:13285211  points:4687700  unbalance:0.0063359332
Cells per refinement level:
    0	3583594
    1	1843
    2	6866
    3	15563
    4	40330
    5	89823
    6	225971
    7	338770

Shell refinement iteration 1
----------------------------

No cells marked for refinement since reached limit 4000000.
Determined cells to refine in = 1.07 s
Selected for internal refinement : 4205 cells (out of 4302760)
Edge intersection testing:
    Number of edges             : 13384583
    Number of edges to retest   : 267174
    Number of intersected edges : 216536
Refined mesh in = 5.14 s
After refinement shell refinement iteration 1 : cells:4332195  faces:13384583  points:4728484  unbalance:0.037185999
Cells per refinement level:
    0	3583577
    1	1878
    2	7551
    3	16333
    4	40043
    5	104921
    6	232266
    7	345626
Balancing since max unbalance 0.037185999 is larger than allowable 0
Balanced mesh in = 15.51 s
After balancing shell refinement iteration 1 : cells:4332195  faces:13384583  points:4728484  unbalance:0.0089836676
Cells per refinement level:
    0	3583577
    1	1878
    2	7551
    3	16333
    4	40043
    5	104921
    6	232266
    7	345626

Shell refinement iteration 2
----------------------------

No cells marked for refinement since reached limit 4000000.
Determined cells to refine in = 1.2 s
Selected for internal refinement : 657 cells (out of 4332195)
Edge intersection testing:
    Number of edges             : 13399754
    Number of edges to retest   : 49616
    Number of intersected edges : 216548
Refined mesh in = 4.85 s
After refinement shell refinement iteration 2 : cells:4336794  faces:13399754  points:4734528  unbalance:0.014044015
Cells per refinement level:
    0	3583554
    1	2032
    2	7760
    3	16162
    4	43316
    5	105480
    6	232848
    7	345642
Balancing since max unbalance 0.014044015 is larger than allowable 0
Balanced mesh in = 15.02 s
After balancing shell refinement iteration 2 : cells:4336794  faces:13399754  points:4734528  unbalance:0.0048796415
Cells per refinement level:
    0	3583554
    1	2032
    2	7760
    3	16162
    4	43316
    5	105480
    6	232848
    7	345642

Shell refinement iteration 3
----------------------------

No cells marked for refinement since reached limit 4000000.
Determined cells to refine in = 1 s
Selected for internal refinement : 232 cells (out of 4336794)
Edge intersection testing:
    Number of edges             : 13405202
    Number of edges to retest   : 18026
    Number of intersected edges : 216560
Refined mesh in = 4.68 s
After refinement shell refinement iteration 3 : cells:4338418  faces:13405202  points:4736774  unbalance:0.0045034849
Cells per refinement level:
    0	3583547
    1	2084
    2	7638
    3	17360
    4	43559
    5	105710
    6	232862
    7	345658
Balancing since max unbalance 0.0045034849 is larger than allowable 0
Balanced mesh in = 13.64 s
After balancing shell refinement iteration 3 : cells:4338418  faces:13405202  points:4736774  unbalance:0.0089212243
Cells per refinement level:
    0	3583547
    1	2084
    2	7638
    3	17360
    4	43559
    5	105710
    6	232862
    7	345658

Shell refinement iteration 4
----------------------------

No cells marked for refinement since reached limit 4000000.
Determined cells to refine in = 1.01 s
Selected for internal refinement : 61 cells (out of 4338418)
Edge intersection testing:
    Number of edges             : 13406702
    Number of edges to retest   : 4993
    Number of intersected edges : 216572
Refined mesh in = 4.32 s
After refinement shell refinement iteration 4 : cells:4338845  faces:13406702  points:4737444  unbalance:0.0090187596
Cells per refinement level:
    0	3583545
    1	2072
    2	7849
    3	17450
    4	43671
    5	105708
    6	232876
    7	345674
Balancing since max unbalance 0.0090187596 is larger than allowable 0
Balanced mesh in = 13.68 s
After balancing shell refinement iteration 4 : cells:4338845  faces:13406702  points:4737444  unbalance:0.0065757131
Cells per refinement level:
    0	3583545
    1	2072
    2	7849
    3	17450
    4	43671
    5	105708
    6	232876
    7	345674

Shell refinement iteration 5
----------------------------

No cells marked for refinement since reached limit 4000000.
Determined cells to refine in = 1.02 s
Selected for internal refinement : 26 cells (out of 4338845)
Edge intersection testing:
    Number of edges             : 13407326
    Number of edges to retest   : 2410
    Number of intersected edges : 216584
Refined mesh in = 4.38 s
After refinement shell refinement iteration 5 : cells:4339027  faces:13407326  points:4737705  unbalance:0.0065334924
Cells per refinement level:
    0	3583539
    1	2113
    2	7899
    3	17495
    4	43695
    5	105706
    6	232890
    7	345690
Balancing since max unbalance 0.0065334924 is larger than allowable 0
Balanced mesh in = 13.61 s
After balancing shell refinement iteration 5 : cells:4339027  faces:13407326  points:4737705  unbalance:0.005308333
Cells per refinement level:
    0	3583539
    1	2113
    2	7899
    3	17495
    4	43695
    5	105706
    6	232890
    7	345690

Shell refinement iteration 6
----------------------------

No cells marked for refinement since reached limit 4000000.
Determined cells to refine in = 0.97 s
Selected for internal refinement : 15 cells (out of 4339027)
Edge intersection testing:
    Number of edges             : 13407698
    Number of edges to retest   : 1411
    Number of intersected edges : 216596
Refined mesh in = 4.49 s
After refinement shell refinement iteration 6 : cells:4339132  faces:13407698  points:4737872  unbalance:0.0052840061
Cells per refinement level:
    0	3583537
    1	2125
    2	7928
    3	17517
    4	43711
    5	105704
    6	232904
    7	345706
Balancing since max unbalance 0.0052840061 is larger than allowable 0
Balanced mesh in = 13.88 s
After balancing shell refinement iteration 6 : cells:4339132  faces:13407698  points:4737872  unbalance:0.0088930228
Cells per refinement level:
    0	3583537
    1	2125
    2	7928
    3	17517
    4	43711
    5	105704
    6	232904
    7	345706

Shell refinement iteration 7
----------------------------

No cells marked for refinement since reached limit 4000000.
Determined cells to refine in = 0.98 s
Selected for internal refinement : 12 cells (out of 4339132)
Edge intersection testing:
    Number of edges             : 13407980
    Number of edges to retest   : 1091
    Number of intersected edges : 216604
Refined mesh in = 4.23 s
After refinement shell refinement iteration 7 : cells:4339216  faces:13407980  points:4737988  unbalance:0.0088734924
Cells per refinement level:
    0	3583535
    1	2140
    2	7933
    3	17540
    4	43719
    5	105701
    6	232926
    7	345722
Balancing since max unbalance 0.0088734924 is larger than allowable 0
Balanced mesh in = 13.97 s
After balancing shell refinement iteration 7 : cells:4339216  faces:13407980  points:4737988  unbalance:0.0089329501
Cells per refinement level:
    0	3583535
    1	2140
    2	7933
    3	17540
    4	43719
    5	105701
    6	232926
    7	345722

Shell refinement iteration 8
----------------------------

No cells marked for refinement since reached limit 4000000.
Determined cells to refine in = 0.95 s
Selected for internal refinement : 2 cells (out of 4339216)
Stopping refining since too few cells selected.


Dangling coarse cells refinement iteration 0
--------------------------------------------

Determined cells to refine in = 0.04 s
Selected for refinement : 50 cells (out of 4339216)
Edge intersection testing:
    Number of edges             : 13408730
    Number of edges to retest   : 6405
    Number of intersected edges : 216604
Refined mesh in = 4.21 s
After refinement coarse cell refinement iteration 0 : cells:4339566  faces:13408730  points:4738088  unbalance:0.0093354958
Cells per refinement level:
    0	3583535
    1	2120
    2	8093
    3	17540
    4	43719
    5	105671
    6	233166
    7	345722
Balancing since max unbalance 0.0093354958 is larger than allowable 0
Balanced mesh in = 14.24 s
After balancing coarse cell refinement iteration 0 : cells:4339566  faces:13408730  points:4738088  unbalance:0.009905138
Cells per refinement level:
    0	3583535
    1	2120
    2	8093
    3	17540
    4	43719
    5	105671
    6	233166
    7	345722

Dangling coarse cells refinement iteration 1
--------------------------------------------

Determined cells to refine in = 0.28 s
Selected for refinement : 0 cells (out of 4339566)
Stopping refining since too few cells selected.


Dangling coarse cells refinement iteration 0
--------------------------------------------

Determined cells to refine in = 0.05 s
Selected for refinement : 0 cells (out of 4339566)
Stopping refining since too few cells selected.


Refinement transition refinement iteration 0
--------------------------------------------

Determined cells to refine in = 0.05 s
Selected for refinement : 0 cells (out of 4339566)
Stopping refining since too few cells selected.


Splitting mesh at surface intersections
---------------------------------------

Introducing baffles for 216604 faces that are intersected by the surface.

Setting cellZones according to locationsInMesh:
Location : (-0.5 0 0.4)
    cellZone : none

For cellZone none found point (-0.5 0 0.4) in global region 0 out of 2 regions.
Edge intersection testing:
    Number of edges             : 13596606
    Number of edges to retest   : 1451982
    Number of intersected edges : 393986
Created baffles in = 4.87 s


After introducing baffles : cells:4339566  faces:13596606  points:4738088  unbalance:0.009905138
Cells per refinement level:
    0	3583535
    1	2120
    2	8093
    3	17540
    4	43719
    5	105671
    6	233166
    7	345722

Introducing baffles to block off problem cells
----------------------------------------------

markFacesOnProblemCells : marked 376540 additional internal faces to be converted into baffles.
Analyzed problem cells in = 3.46 s


Introducing baffles to delete problem cells.

Edge intersection testing:
    Number of edges             : 13972869
    Number of edges to retest   : 1192110
    Number of intersected edges : 393994
Created baffles in = 4.69 s


After introducing baffles : cells:4339566  faces:13972869  points:4738560  unbalance:0.009905138
Cells per refinement level:
    0	3583535
    1	2120
    2	8093
    3	17540
    4	43719
    5	105671
    6	233166
    7	345722
Setting cellZones according to locationsInMesh:
Location : (-0.5 0 0.4)
    cellZone : none

For cellZone none found point (-0.5 0 0.4) in global region 0 out of 176975 regions.
Edge intersection testing:
    Number of edges             : 13972869
    Number of edges to retest   : 1767047
    Number of intersected edges : 393994

Remove unreachable sections of mesh
-----------------------------------

Keeping all cells containing points 1((-0.5 0 0.4))
Selected for keeping : 4134097 cells.
Edge intersection testing:
    Number of edges             : 12736054
    Number of edges to retest   : 0
    Number of intersected edges : 183984
Split mesh in = 10.36 s


After subsetting : cells:4134097  faces:12736054  points:4476900  unbalance:0.22612556
Cells per refinement level:
    0	3583535
    1	2120
    2	7421
    3	15812
    4	36092
    5	86084
    6	173158
    7	229875

Introducing zones for interfaces
--------------------------------

Setting cellZones according to locationsInMesh:
Location : (-0.5 0 0.4)
    cellZone : none

For cellZone none found point (-0.5 0 0.4) in global region 0 out of 1 regions.
Setting faceZones according to neighbouring cellZones:

Edge intersection testing:
    Number of edges             : 12736054
    Number of edges to retest   : 0
    Number of intersected edges : 183984

Handling cells with snap problems
---------------------------------

Introducing baffles for 183984 faces that are intersected by the surface.

Setting cellZones according to locationsInMesh:
Location : (-0.5 0 0.4)
    cellZone : none

For cellZone none found point (-0.5 0 0.4) in global region 0 out of 1 regions.
Edge intersection testing:
    Number of edges             : 12736054
    Number of edges to retest   : 680576
    Number of intersected edges : 183984
Created baffles in = 7.53 s


After introducing baffles : cells:4134097  faces:12736054  points:4476900  unbalance:0.22612556
Cells per refinement level:
    0	3583535
    1	2120
    2	7421
    3	15812
    4	36092
    5	86084
    6	173158
    7	229875

Introducing baffles to block off problem cells
----------------------------------------------

markFacesOnProblemCells : marked 0 additional internal faces to be converted into baffles.
Analyzed problem cells in = 2.68 s


Introducing baffles to delete problem cells.

Created baffles in = 0.26 s


After introducing baffles : cells:4134097  faces:12736054  points:4476900  unbalance:0.22612556
Cells per refinement level:
    0	3583535
    1	2120
    2	7421
    3	15812
    4	36092
    5	86084
    6	173158
    7	229875
Setting cellZones according to locationsInMesh:
Location : (-0.5 0 0.4)
    cellZone : none

For cellZone none found point (-0.5 0 0.4) in global region 0 out of 1 regions.
Edge intersection testing:
    Number of edges             : 12736054
    Number of edges to retest   : 680576
    Number of intersected edges : 183984

Remove unreachable sections of mesh
-----------------------------------

Split mesh in = 4.45 s


After subsetting : cells:4134097  faces:12736054  points:4476900  unbalance:0.22612556
Cells per refinement level:
    0	3583535
    1	2120
    2	7421
    3	15812
    4	36092
    5	86084
    6	173158
    7	229875

Merge free-standing baffles
---------------------------

freeStandingBaffles : detected 0 free-standing baffles out of 0

Detected free-standing baffles : 0
Merged free-standing baffles in = 1.07 s


dupNonManifoldPoints : Found : 8 non-manifold points (out of 4529233)
Edge intersection testing:
    Number of edges             : 12736054
    Number of edges to retest   : 0
    Number of intersected edges : 183984
Detected unsplittable baffles : 0

Merge refined boundary faces
----------------------------

Merging 5038 sets of faces.

Edge intersection testing:
    Number of edges             : 12729306
    Number of edges to retest   : 37499
    Number of intersected edges : 177236

Undo iteration 0
----------------
Checking faces in error :
    non-orthogonality > 75  degrees                        : 0
    faces with concavity > 80  degrees                     : 0
    faces with area < 1e-13 m^2                            : 0
    faces with skewness > 4   (internal) or 20  (boundary) : 0
    faces with interpolation weights (0..1)  < 0.02        : 0
    faces with volume ratio of neighbour cells < 0.01      : 0
    faces on cells with determinant < 0.001                : 0

Merging all points on surface that
- are used by only two boundary faces and
- make an angle with a cosine of more than 0.70710678.

Removing 5343 straight edge points ...

Edge intersection testing:
    Number of edges             : 12729306
    Number of edges to retest   : 38626
    Number of intersected edges : 177236

Undo iteration 0
----------------
Checking faces in error :
    non-orthogonality > 75  degrees                        : 0
    faces with concavity > 80  degrees                     : 0
    faces with area < 1e-13 m^2                            : 0
    faces with skewness > 4   (internal) or 20  (boundary) : 0
    faces with interpolation weights (0..1)  < 0.02        : 0
    faces with volume ratio of neighbour cells < 0.01      : 0
    faces on cells with determinant < 0.001                : 0

Doing final balancing
---------------------

Found 0 zoned faces to keep together.
Found 0 separated coupled faces to keep together.
Refined mesh : cells:4134097  faces:12729306  points:4470710  unbalance:0.008272907
Cells per refinement level:
    0	3583535
    1	2120
    2	7421
    3	15812
    4	36092
    5	86084
    6	173158
    7	229875
Writing mesh to time constant
Wrote mesh in = 0.3 s.
Mesh refined in = 540.59 s.

Morphing phase
--------------

Duplicating 0 points on faceZones of type boundary
Snapping to features in 15 iterations ...
Constructing mesh displacer ...
Using mesh parameters 
{
    maxNonOrtho     75;
    maxBoundarySkewness 20;
    maxInternalSkewness 4;
    maxConcave      80;
    minArea         1e-13;
    minVol          -1e+30;
    minTwist        -1e+30;
    minFaceWeight   0.02;
    minVolRatio     0.01;
    minTetQuality   -1e+30;
    errorReduction  0.5;
    nSmoothScale    10;
    minTriangleTwist -1e+30;
    minDeterminant  0.001;
}


Checking initial mesh ...
Checking faces in error :
    non-orthogonality > 75  degrees                        : 0
    faces with concavity > 80  degrees                     : 0
    faces with area < 1e-13 m^2                            : 0
    faces with skewness > 4   (internal) or 20  (boundary) : 0
    faces with interpolation weights (0..1)  < 0.02        : 0
    faces with volume ratio of neighbour cells < 0.01      : 0
    faces on cells with determinant < 0.001                : 0
Detected 0 illegal faces (concave, zero area or negative cell pyramid volume)
Checked initial mesh in = 27.8 s


Smoothing patch points ...
Smoothing iteration 0
Found 0 non-manifold point(s).

Scaling iteration 0
Moving mesh using displacement scaling : min:1  max:1
Checking faces in error :
    non-orthogonality > 75  degrees                        : 0
    faces with concavity > 80  degrees                     : 0
    faces with area < 1e-13 m^2                            : 0
    faces with skewness > 4   (internal) or 20  (boundary) : 0
    faces with interpolation weights (0..1)  < 0.02        : 0
    faces with volume ratio of neighbour cells < 0.01      : 0
    faces on cells with determinant < 0.001                : 0
Successfully moved mesh

Smoothing iteration 1
Found 0 non-manifold point(s).

Scaling iteration 0
Moving mesh using displacement scaling : min:1  max:1
Checking faces in error :
    non-orthogonality > 75  degrees                        : 0
    faces with concavity > 80  degrees                     : 0
    faces with area < 1e-13 m^2                            : 0
    faces with skewness > 4   (internal) or 20  (boundary) : 0
    faces with interpolation weights (0..1)  < 0.02        : 0
    faces with volume ratio of neighbour cells < 0.01      : 0
    faces on cells with determinant < 0.001                : 0
Successfully moved mesh

Smoothing iteration 2
Found 0 non-manifold point(s).

Scaling iteration 0
Moving mesh using displacement scaling : min:1  max:1
Checking faces in error :
    non-orthogonality > 75  degrees                        : 0
    faces with concavity > 80  degrees                     : 0
    faces with area < 1e-13 m^2                            : 0
    faces with skewness > 4   (internal) or 20  (boundary) : 0
    faces with interpolation weights (0..1)  < 0.02        : 0
    faces with volume ratio of neighbour cells < 0.01      : 0
    faces on cells with determinant < 0.001                : 0
Successfully moved mesh

Smoothing iteration 3
Found 0 non-manifold point(s).

Scaling iteration 0
Moving mesh using displacement scaling : min:1  max:1
Checking faces in error :
    non-orthogonality > 75  degrees                        : 7
    faces with concavity > 80  degrees                     : 0
    faces with area < 1e-13 m^2                            : 0
    faces with skewness > 4   (internal) or 20  (boundary) : 0
    faces with interpolation weights (0..1)  < 0.02        : 0
    faces with volume ratio of neighbour cells < 0.01      : 0
    faces on cells with determinant < 0.001                : 0

Scaling iteration 1
Moving mesh using displacement scaling : min:0.5  max:1
Checking faces in error :
    non-orthogonality > 75  degrees                        : 6
    faces with concavity > 80  degrees                     : 0
    faces with area < 1e-13 m^2                            : 0
    faces with skewness > 4   (internal) or 20  (boundary) : 0
    faces with interpolation weights (0..1)  < 0.02        : 0
    faces with volume ratio of neighbour cells < 0.01      : 0
    faces on cells with determinant < 0.001                : 0

Scaling iteration 2
Moving mesh using displacement scaling : min:0.25  max:1
Checking faces in error :
    non-orthogonality > 75  degrees                        : 6
    faces with concavity > 80  degrees                     : 0
    faces with area < 1e-13 m^2                            : 0
    faces with skewness > 4   (internal) or 20  (boundary) : 0
    faces with interpolation weights (0..1)  < 0.02        : 0
    faces with volume ratio of neighbour cells < 0.01      : 0
    faces on cells with determinant < 0.001                : 0

Scaling iteration 3
Moving mesh using displacement scaling : min:0.125  max:1
Checking faces in error :
    non-orthogonality > 75  degrees                        : 0
    faces with concavity > 80  degrees                     : 0
    faces with area < 1e-13 m^2                            : 0
    faces with skewness > 4   (internal) or 20  (boundary) : 0
    faces with interpolation weights (0..1)  < 0.02        : 0
    faces with volume ratio of neighbour cells < 0.01      : 0
    faces on cells with determinant < 0.001                : 0
Successfully moved mesh

Smoothing iteration 4
Found 0 non-manifold point(s).

Scaling iteration 0
Moving mesh using displacement scaling : min:1  max:1
Checking faces in error :
    non-orthogonality > 75  degrees                        : 12
    faces with concavity > 80  degrees                     : 4
    faces with area < 1e-13 m^2                            : 0
    faces with skewness > 4   (internal) or 20  (boundary) : 0
    faces with interpolation weights (0..1)  < 0.02        : 0
    faces with volume ratio of neighbour cells < 0.01      : 0
    faces on cells with determinant < 0.001                : 0

Scaling iteration 1
Moving mesh using displacement scaling : min:0.5  max:1
Checking faces in error :
    non-orthogonality > 75  degrees                        : 9
    faces with concavity > 80  degrees                     : 0
    faces with area < 1e-13 m^2                            : 0
    faces with skewness > 4   (internal) or 20  (boundary) : 0
    faces with interpolation weights (0..1)  < 0.02        : 0
    faces with volume ratio of neighbour cells < 0.01      : 0
    faces on cells with determinant < 0.001                : 0

Scaling iteration 2
Moving mesh using displacement scaling : min:0.25  max:1
Checking faces in error :
    non-orthogonality > 75  degrees                        : 7
    faces with concavity > 80  degrees                     : 0
    faces with area < 1e-13 m^2                            : 0
    faces with skewness > 4   (internal) or 20  (boundary) : 0
    faces with interpolation weights (0..1)  < 0.02        : 0
    faces with volume ratio of neighbour cells < 0.01      : 0
    faces on cells with determinant < 0.001                : 0

Scaling iteration 3
Moving mesh using displacement scaling : min:0.125  max:1
Checking faces in error :
    non-orthogonality > 75  degrees                        : 6
    faces with concavity > 80  degrees                     : 0
    faces with area < 1e-13 m^2                            : 0
    faces with skewness > 4   (internal) or 20  (boundary) : 0
    faces with interpolation weights (0..1)  < 0.02        : 0
    faces with volume ratio of neighbour cells < 0.01      : 0
    faces on cells with determinant < 0.001                : 0

Scaling iteration 4
Moving mesh using displacement scaling : min:0.0625  max:1
Checking faces in error :
    non-orthogonality > 75  degrees                        : 6
    faces with concavity > 80  degrees                     : 0
    faces with area < 1e-13 m^2                            : 0
    faces with skewness > 4   (internal) or 20  (boundary) : 0
    faces with interpolation weights (0..1)  < 0.02        : 0
    faces with volume ratio of neighbour cells < 0.01      : 0
    faces on cells with determinant < 0.001                : 0

Scaling iteration 5
Moving mesh using displacement scaling : min:0.03125  max:1
Checking faces in error :
    non-orthogonality > 75  degrees                        : 4
    faces with concavity > 80  degrees                     : 0
    faces with area < 1e-13 m^2                            : 0
    faces with skewness > 4   (internal) or 20  (boundary) : 0
    faces with interpolation weights (0..1)  < 0.02        : 0
    faces with volume ratio of neighbour cells < 0.01      : 0
    faces on cells with determinant < 0.001                : 0

Scaling iteration 6
Moving mesh using displacement scaling : min:0.015625  max:1
Checking faces in error :
    non-orthogonality > 75  degrees                        : 4
    faces with concavity > 80  degrees                     : 0
    faces with area < 1e-13 m^2                            : 0
    faces with skewness > 4   (internal) or 20  (boundary) : 0
    faces with interpolation weights (0..1)  < 0.02        : 0
    faces with volume ratio of neighbour cells < 0.01      : 0
    faces on cells with determinant < 0.001                : 0

Scaling iteration 7
Moving mesh using displacement scaling : min:0.0078125  max:1
Checking faces in error :
    non-orthogonality > 75  degrees                        : 4
    faces with concavity > 80  degrees                     : 0
    faces with area < 1e-13 m^2                            : 0
    faces with skewness > 4   (internal) or 20  (boundary) : 0
    faces with interpolation weights (0..1)  < 0.02        : 0
    faces with volume ratio of neighbour cells < 0.01      : 0
    faces on cells with determinant < 0.001                : 0

Scaling iteration 8
Moving mesh using displacement scaling : min:0.00390625  max:1
Checking faces in error :
    non-orthogonality > 75  degrees                        : 4
    faces with concavity > 80  degrees                     : 0
    faces with area < 1e-13 m^2                            : 0
    faces with skewness > 4   (internal) or 20  (boundary) : 0
    faces with interpolation weights (0..1)  < 0.02        : 0
    faces with volume ratio of neighbour cells < 0.01      : 0
    faces on cells with determinant < 0.001                : 0

Scaling iteration 9
Moving mesh using displacement scaling : min:0.001953125  max:1
Checking faces in error :
    non-orthogonality > 75  degrees                        : 4
    faces with concavity > 80  degrees                     : 0
    faces with area < 1e-13 m^2                            : 0
    faces with skewness > 4   (internal) or 20  (boundary) : 0
    faces with interpolation weights (0..1)  < 0.02        : 0
    faces with volume ratio of neighbour cells < 0.01      : 0
    faces on cells with determinant < 0.001                : 0

Scaling iteration 10
Moving mesh using displacement scaling : min:0.0009765625  max:1
Checking faces in error :
    non-orthogonality > 75  degrees                        : 4
    faces with concavity > 80  degrees                     : 0
    faces with area < 1e-13 m^2                            : 0
    faces with skewness > 4   (internal) or 20  (boundary) : 0
    faces with interpolation weights (0..1)  < 0.02        : 0
    faces with volume ratio of neighbour cells < 0.01      : 0
    faces on cells with determinant < 0.001                : 0

Scaling iteration 11
Moving mesh using displacement scaling : min:0.00048828125  max:1
Checking faces in error :
    non-orthogonality > 75  degrees                        : 4
    faces with concavity > 80  degrees                     : 0
    faces with area < 1e-13 m^2                            : 0
    faces with skewness > 4   (internal) or 20  (boundary) : 0
    faces with interpolation weights (0..1)  < 0.02        : 0
    faces with volume ratio of neighbour cells < 0.01      : 0
    faces on cells with determinant < 0.001                : 0

Scaling iteration 12
Moving mesh using displacement scaling : min:0.00024414062  max:1
Checking faces in error :
    non-orthogonality > 75  degrees                        : 4
    faces with concavity > 80  degrees                     : 0
    faces with area < 1e-13 m^2                            : 0
    faces with skewness > 4   (internal) or 20  (boundary) : 0
    faces with interpolation weights (0..1)  < 0.02        : 0
    faces with volume ratio of neighbour cells < 0.01      : 0
    faces on cells with determinant < 0.001                : 0

Scaling iteration 13
Moving mesh using displacement scaling : min:0.00012207031  max:1
Checking faces in error :
    non-orthogonality > 75  degrees                        : 4
    faces with concavity > 80  degrees                     : 0
    faces with area < 1e-13 m^2                            : 0
    faces with skewness > 4   (internal) or 20  (boundary) : 0
    faces with interpolation weights (0..1)  < 0.02        : 0
    faces with volume ratio of neighbour cells < 0.01      : 0
    faces on cells with determinant < 0.001                : 0

Scaling iteration 14
Moving mesh using displacement scaling : min:6.1035156e-05  max:1
Checking faces in error :
    non-orthogonality > 75  degrees                        : 4
    faces with concavity > 80  degrees                     : 0
    faces with area < 1e-13 m^2                            : 0
    faces with skewness > 4   (internal) or 20  (boundary) : 0
    faces with interpolation weights (0..1)  < 0.02        : 0
    faces with volume ratio of neighbour cells < 0.01      : 0
    faces on cells with determinant < 0.001                : 0

Scaling iteration 15
Displacement scaling for error reduction set to 0.
Moving mesh using displacement scaling : min:3.0517578e-05  max:1
Checking faces in error :
    non-orthogonality > 75  degrees                        : 4
    faces with concavity > 80  degrees                     : 0
    faces with area < 1e-13 m^2                            : 0
    faces with skewness > 4   (internal) or 20  (boundary) : 0
    faces with interpolation weights (0..1)  < 0.02        : 0
    faces with volume ratio of neighbour cells < 0.01      : 0
    faces on cells with determinant < 0.001                : 0

Scaling iteration 16
Moving mesh using displacement scaling : min:0  max:1
Checking faces in error :
    non-orthogonality > 75  degrees                        : 0
    faces with concavity > 80  degrees                     : 0
    faces with area < 1e-13 m^2                            : 0
    faces with skewness > 4   (internal) or 20  (boundary) : 0
    faces with interpolation weights (0..1)  < 0.02        : 0
    faces with volume ratio of neighbour cells < 0.01      : 0
    faces on cells with determinant < 0.001                : 0
Successfully moved mesh

Patch points smoothed in = 50.3 s



Morph iteration 0
-----------------
Calculating patchDisplacement as distance to nearest surface point ...
    non-zone points : attract to nearest of all non-zone surfaces
    zone points     : attract to zone surface only

Wanted displacement : average:2.5672693e-05 min:7.0719684e-19 max:0.00055324914
Calculated surface displacement in = 0.08 s


Detecting near surfaces ...
Overriding nearest with intersection of close gaps at 0 out of 190145 points.
Overriding displacement on features :
   implicit features    : false
   explicit features    : true
   multi-patch features : true

Detected 0 baffle edges out of 371272 edges.
Baffle points     : 0 of which attracted to :
    feature point : 0
    feature edge  : 0
    rest          : 0

--> FOAM Warning : 
    From Foam::treeBoundBox::treeBoundBox(const Foam::UList<Foam::Vector<double> >&)
    in file meshes/treeBoundBox/treeBoundBox.C at line 70
    No bounding box for zero-sized pointField
Initially selected 10564 mesh points out of 190145 for reverse attraction.
Selected 26598 mesh points out of 190145 for reverse attraction.
Stringing feature edges : changed 1446 points
Stringing feature edges : changed 27 points
Stringing feature edges : changed 1 points
Stringing feature edges : changed 0 points
Attraction:
    linear   : max:(0.00041371874 4.3368087e-19 -0.00036731651) avg:(1.3870472e-06 7.6086329e-07 -1.0777953e-05)
    feature  : max:(-6.1254958e-05 1.0164395e-19 -7.2000582e-19) avg:(-1.0556338e-08 2.2344597e-07 2.8949911e-07)
Feature analysis : total master points :190145 of which attracted to :
    feature point   : 7
    feature edge    : 10900
    nearest surface : 0
    rest            : 179238

Smoothing displacement ...
Iteration 0
Iteration 10
Iteration 20
Iteration 30
Iteration 40
Iteration 50
Iteration 60
Iteration 70
Iteration 80
Iteration 90
Displacement smoothed in = 14.53 s


Moving mesh ...

Iteration 0
Moving mesh using displacement scaling : min:1  max:1
Checking faces in error :
    non-orthogonality > 75  degrees                        : 4
    faces with concavity > 80  degrees                     : 0
    faces with area < 1e-13 m^2                            : 0
    faces with skewness > 4   (internal) or 20  (boundary) : 0
    faces with interpolation weights (0..1)  < 0.02        : 0
    faces with volume ratio of neighbour cells < 0.01      : 0
    faces on cells with determinant < 0.001                : 0

Iteration 1
Moving mesh using displacement scaling : min:0.5  max:1
Checking faces in error :
    non-orthogonality > 75  degrees                        : 4
    faces with concavity > 80  degrees                     : 0
    faces with area < 1e-13 m^2                            : 0
    faces with skewness > 4   (internal) or 20  (boundary) : 0
    faces with interpolation weights (0..1)  < 0.02        : 0
    faces with volume ratio of neighbour cells < 0.01      : 0
    faces on cells with determinant < 0.001                : 0

Iteration 2
Moving mesh using displacement scaling : min:0.25  max:1
Checking faces in error :
    non-orthogonality > 75  degrees                        : 4
    faces with concavity > 80  degrees                     : 0
    faces with area < 1e-13 m^2                            : 0
    faces with skewness > 4   (internal) or 20  (boundary) : 0
    faces with interpolation weights (0..1)  < 0.02        : 0
    faces with volume ratio of neighbour cells < 0.01      : 0
    faces on cells with determinant < 0.001                : 0

Iteration 3
Moving mesh using displacement scaling : min:0.125  max:1
Checking faces in error :
    non-orthogonality > 75  degrees                        : 4
    faces with concavity > 80  degrees                     : 0
    faces with area < 1e-13 m^2                            : 0
    faces with skewness > 4   (internal) or 20  (boundary) : 0
    faces with interpolation weights (0..1)  < 0.02        : 0
    faces with volume ratio of neighbour cells < 0.01      : 0
    faces on cells with determinant < 0.001                : 0

Iteration 4
Moving mesh using displacement scaling : min:0.0625  max:1
Checking faces in error :
    non-orthogonality > 75  degrees                        : 4
    faces with concavity > 80  degrees                     : 0
    faces with area < 1e-13 m^2                            : 0
    faces with skewness > 4   (internal) or 20  (boundary) : 0
    faces with interpolation weights (0..1)  < 0.02        : 0
    faces with volume ratio of neighbour cells < 0.01      : 0
    faces on cells with determinant < 0.001                : 0

Iteration 5
Moving mesh using displacement scaling : min:0.03125  max:1
Checking faces in error :
    non-orthogonality > 75  degrees                        : 4
    faces with concavity > 80  degrees                     : 0
    faces with area < 1e-13 m^2                            : 0
    faces with skewness > 4   (internal) or 20  (boundary) : 0
    faces with interpolation weights (0..1)  < 0.02        : 0
    faces with volume ratio of neighbour cells < 0.01      : 0
    faces on cells with determinant < 0.001                : 0

Iteration 6
Moving mesh using displacement scaling : min:0.015625  max:1
Checking faces in error :
    non-orthogonality > 75  degrees                        : 4
    faces with concavity > 80  degrees                     : 0
    faces with area < 1e-13 m^2                            : 0
    faces with skewness > 4   (internal) or 20  (boundary) : 0
    faces with interpolation weights (0..1)  < 0.02        : 0
    faces with volume ratio of neighbour cells < 0.01      : 0
    faces on cells with determinant < 0.001                : 0

Iteration 7
Moving mesh using displacement scaling : min:0.0078125  max:1
Checking faces in error :
    non-orthogonality > 75  degrees                        : 4
    faces with concavity > 80  degrees                     : 0
    faces with area < 1e-13 m^2                            : 0
    faces with skewness > 4   (internal) or 20  (boundary) : 0
    faces with interpolation weights (0..1)  < 0.02        : 0
    faces with volume ratio of neighbour cells < 0.01      : 0
    faces on cells with determinant < 0.001                : 0

Iteration 8
Moving mesh using displacement scaling : min:0.00390625  max:1
Checking faces in error :
    non-orthogonality > 75  degrees                        : 4
    faces with concavity > 80  degrees                     : 0
    faces with area < 1e-13 m^2                            : 0
    faces with skewness > 4   (internal) or 20  (boundary) : 0
    faces with interpolation weights (0..1)  < 0.02        : 0
    faces with volume ratio of neighbour cells < 0.01      : 0
    faces on cells with determinant < 0.001                : 0

Iteration 9
Moving mesh using displacement scaling : min:0.001953125  max:1
Checking faces in error :
    non-orthogonality > 75  degrees                        : 4
    faces with concavity > 80  degrees                     : 0
    faces with area < 1e-13 m^2                            : 0
    faces with skewness > 4   (internal) or 20  (boundary) : 0
    faces with interpolation weights (0..1)  < 0.02        : 0
    faces with volume ratio of neighbour cells < 0.01      : 0
    faces on cells with determinant < 0.001                : 0

Iteration 10
Moving mesh using displacement scaling : min:0.0009765625  max:1
Checking faces in error :
    non-orthogonality > 75  degrees                        : 4
    faces with concavity > 80  degrees                     : 0
    faces with area < 1e-13 m^2                            : 0
    faces with skewness > 4   (internal) or 20  (boundary) : 0
    faces with interpolation weights (0..1)  < 0.02        : 0
    faces with volume ratio of neighbour cells < 0.01      : 0
    faces on cells with determinant < 0.001                : 0

Iteration 11
Moving mesh using displacement scaling : min:0.00048828125  max:1
Checking faces in error :
    non-orthogonality > 75  degrees                        : 4
    faces with concavity > 80  degrees                     : 0
    faces with area < 1e-13 m^2                            : 0
    faces with skewness > 4   (internal) or 20  (boundary) : 0
    faces with interpolation weights (0..1)  < 0.02        : 0
    faces with volume ratio of neighbour cells < 0.01      : 0
    faces on cells with determinant < 0.001                : 0

Iteration 12
Moving mesh using displacement scaling : min:0.00024414062  max:1
Checking faces in error :
    non-orthogonality > 75  degrees                        : 4
    faces with concavity > 80  degrees                     : 0
    faces with area < 1e-13 m^2                            : 0
    faces with skewness > 4   (internal) or 20  (boundary) : 0
    faces with interpolation weights (0..1)  < 0.02        : 0
    faces with volume ratio of neighbour cells < 0.01      : 0
    faces on cells with determinant < 0.001                : 0

Iteration 13
Moving mesh using displacement scaling : min:0.00012207031  max:1
Checking faces in error :
    non-orthogonality > 75  degrees                        : 4
    faces with concavity > 80  degrees                     : 0
    faces with area < 1e-13 m^2                            : 0
    faces with skewness > 4   (internal) or 20  (boundary) : 0
    faces with interpolation weights (0..1)  < 0.02        : 0
    faces with volume ratio of neighbour cells < 0.01      : 0
    faces on cells with determinant < 0.001                : 0

Iteration 14
Moving mesh using displacement scaling : min:6.1035156e-05  max:1
Checking faces in error :
    non-orthogonality > 75  degrees                        : 4
    faces with concavity > 80  degrees                     : 0
    faces with area < 1e-13 m^2                            : 0
    faces with skewness > 4   (internal) or 20  (boundary) : 0
    faces with interpolation weights (0..1)  < 0.02        : 0
    faces with volume ratio of neighbour cells < 0.01      : 0
    faces on cells with determinant < 0.001                : 0

Iteration 15
Displacement scaling for error reduction set to 0.
Moving mesh using displacement scaling : min:3.0517578e-05  max:1
Checking faces in error :
    non-orthogonality > 75  degrees                        : 4
    faces with concavity > 80  degrees                     : 0
    faces with area < 1e-13 m^2                            : 0
    faces with skewness > 4   (internal) or 20  (boundary) : 0
    faces with interpolation weights (0..1)  < 0.02        : 0
    faces with volume ratio of neighbour cells < 0.01      : 0
    faces on cells with determinant < 0.001                : 0

Iteration 16
Moving mesh using displacement scaling : min:0  max:1
Checking faces in error :
    non-orthogonality > 75  degrees                        : 0
    faces with concavity > 80  degrees                     : 0
    faces with area < 1e-13 m^2                            : 0
    faces with skewness > 4   (internal) or 20  (boundary) : 0
    faces with interpolation weights (0..1)  < 0.02        : 0
    faces with volume ratio of neighbour cells < 0.01      : 0
    faces on cells with determinant < 0.001                : 0
Successfully moved mesh
Moved mesh in = 34.45 s



Morph iteration 1
-----------------
Calculating patchDisplacement as distance to nearest surface point ...
    non-zone points : attract to nearest of all non-zone surfaces
    zone points     : attract to zone surface only

Wanted displacement : average:2.4120261e-05 min:7.1116753e-19 max:0.00053305429
Calculated surface displacement in = 0.09 s


Detecting near surfaces ...
Overriding nearest with intersection of close gaps at 0 out of 190145 points.
Overriding displacement on features :
   implicit features    : false
   explicit features    : true
   multi-patch features : true

Detected 0 baffle edges out of 371272 edges.
Baffle points     : 0 of which attracted to :
    feature point : 0
    feature edge  : 0
    rest          : 0

--> FOAM Warning : 
    From Foam::treeBoundBox::treeBoundBox(const Foam::UList<Foam::Vector<double> >&)
    in file meshes/treeBoundBox/treeBoundBox.C at line 70
    No bounding box for zero-sized pointField
Initially selected 10578 mesh points out of 190145 for reverse attraction.
Selected 26611 mesh points out of 190145 for reverse attraction.
Stringing feature edges : changed 1435 points
Stringing feature edges : changed 26 points
Stringing feature edges : changed 1 points
Stringing feature edges : changed 0 points
Attraction:
    linear   : max:(0.00039861707 2.1684043e-19 -0.00035390862) avg:(1.2997674e-06 7.1017233e-07 -1.0095001e-05)
    feature  : max:(-6.0982713e-05 9.486769e-20 -7.2000582e-19) avg:(-1.0757471e-08 2.0699331e-07 2.8735018e-07)
Feature analysis : total master points :190145 of which attracted to :
    feature point   : 7
    feature edge    : 10894
    nearest surface : 0
    rest            : 179244

Smoothing displacement ...
Iteration 0
Iteration 10
Iteration 20
Iteration 30
Iteration 40
Iteration 50
Iteration 60
Iteration 70
Iteration 80
Iteration 90
Displacement smoothed in = 14.3 s


Moving mesh ...

Iteration 0
Moving mesh using displacement scaling : min:1  max:1
Checking faces in error :
    non-orthogonality > 75  degrees                        : 6
    faces with concavity > 80  degrees                     : 0
    faces with area < 1e-13 m^2                            : 0
    faces with skewness > 4   (internal) or 20  (boundary) : 0
    faces with interpolation weights (0..1)  < 0.02        : 0
    faces with volume ratio of neighbour cells < 0.01      : 0
    faces on cells with determinant < 0.001                : 0

Iteration 1
Moving mesh using displacement scaling : min:0.5  max:1
Checking faces in error :
    non-orthogonality > 75  degrees                        : 6
    faces with concavity > 80  degrees                     : 0
    faces with area < 1e-13 m^2                            : 0
    faces with skewness > 4   (internal) or 20  (boundary) : 0
    faces with interpolation weights (0..1)  < 0.02        : 0
    faces with volume ratio of neighbour cells < 0.01      : 0
    faces on cells with determinant < 0.001                : 0

Iteration 2
Moving mesh using displacement scaling : min:0.25  max:1
Checking faces in error :
    non-orthogonality > 75  degrees                        : 4
    faces with concavity > 80  degrees                     : 0
    faces with area < 1e-13 m^2                            : 0
    faces with skewness > 4   (internal) or 20  (boundary) : 0
    faces with interpolation weights (0..1)  < 0.02        : 0
    faces with volume ratio of neighbour cells < 0.01      : 0
    faces on cells with determinant < 0.001                : 0

Iteration 3
Moving mesh using displacement scaling : min:0.125  max:1
Checking faces in error :
    non-orthogonality > 75  degrees                        : 4
    faces with concavity > 80  degrees                     : 0
    faces with area < 1e-13 m^2                            : 0
    faces with skewness > 4   (internal) or 20  (boundary) : 0
    faces with interpolation weights (0..1)  < 0.02        : 0
    faces with volume ratio of neighbour cells < 0.01      : 0
    faces on cells with determinant < 0.001                : 0

Iteration 4
Moving mesh using displacement scaling : min:0.0625  max:1
Checking faces in error :
    non-orthogonality > 75  degrees                        : 4
    faces with concavity > 80  degrees                     : 0
    faces with area < 1e-13 m^2                            : 0
    faces with skewness > 4   (internal) or 20  (boundary) : 0
    faces with interpolation weights (0..1)  < 0.02        : 0
    faces with volume ratio of neighbour cells < 0.01      : 0
    faces on cells with determinant < 0.001                : 0

Iteration 5
Moving mesh using displacement scaling : min:0.03125  max:1
Checking faces in error :
    non-orthogonality > 75  degrees                        : 4
    faces with concavity > 80  degrees                     : 0
    faces with area < 1e-13 m^2                            : 0
    faces with skewness > 4   (internal) or 20  (boundary) : 0
    faces with interpolation weights (0..1)  < 0.02        : 0
    faces with volume ratio of neighbour cells < 0.01      : 0
    faces on cells with determinant < 0.001                : 0

Iteration 6
Moving mesh using displacement scaling : min:0.015625  max:1
Checking faces in error :
    non-orthogonality > 75  degrees                        : 4
    faces with concavity > 80  degrees                     : 0
    faces with area < 1e-13 m^2                            : 0
    faces with skewness > 4   (internal) or 20  (boundary) : 0
    faces with interpolation weights (0..1)  < 0.02        : 0
    faces with volume ratio of neighbour cells < 0.01      : 0
    faces on cells with determinant < 0.001                : 0

Iteration 7
Moving mesh using displacement scaling : min:0.0078125  max:1
Checking faces in error :
    non-orthogonality > 75  degrees                        : 4
    faces with concavity > 80  degrees                     : 0
    faces with area < 1e-13 m^2                            : 0
    faces with skewness > 4   (internal) or 20  (boundary) : 0
    faces with interpolation weights (0..1)  < 0.02        : 0
    faces with volume ratio of neighbour cells < 0.01      : 0
    faces on cells with determinant < 0.001                : 0

Iteration 8
Moving mesh using displacement scaling : min:0.00390625  max:1
Checking faces in error :
    non-orthogonality > 75  degrees                        : 4
    faces with concavity > 80  degrees                     : 0
    faces with area < 1e-13 m^2                            : 0
    faces with skewness > 4   (internal) or 20  (boundary) : 0
    faces with interpolation weights (0..1)  < 0.02        : 0
    faces with volume ratio of neighbour cells < 0.01      : 0
    faces on cells with determinant < 0.001                : 0

Iteration 9
Moving mesh using displacement scaling : min:0.001953125  max:1
Checking faces in error :
    non-orthogonality > 75  degrees                        : 4
    faces with concavity > 80  degrees                     : 0
    faces with area < 1e-13 m^2                            : 0
    faces with skewness > 4   (internal) or 20  (boundary) : 0
    faces with interpolation weights (0..1)  < 0.02        : 0
    faces with volume ratio of neighbour cells < 0.01      : 0
    faces on cells with determinant < 0.001                : 0

Iteration 10
Moving mesh using displacement scaling : min:0.0009765625  max:1
Checking faces in error :
    non-orthogonality > 75  degrees                        : 4
    faces with concavity > 80  degrees                     : 0
    faces with area < 1e-13 m^2                            : 0
    faces with skewness > 4   (internal) or 20  (boundary) : 0
    faces with interpolation weights (0..1)  < 0.02        : 0
    faces with volume ratio of neighbour cells < 0.01      : 0
    faces on cells with determinant < 0.001                : 0

Iteration 11
Moving mesh using displacement scaling : min:0.00048828125  max:1
Checking faces in error :
    non-orthogonality > 75  degrees                        : 4
    faces with concavity > 80  degrees                     : 0
    faces with area < 1e-13 m^2                            : 0
    faces with skewness > 4   (internal) or 20  (boundary) : 0
    faces with interpolation weights (0..1)  < 0.02        : 0
    faces with volume ratio of neighbour cells < 0.01      : 0
    faces on cells with determinant < 0.001                : 0

Iteration 12
Moving mesh using displacement scaling : min:0.00024414062  max:1
Checking faces in error :
    non-orthogonality > 75  degrees                        : 4
    faces with concavity > 80  degrees                     : 0
    faces with area < 1e-13 m^2                            : 0
    faces with skewness > 4   (internal) or 20  (boundary) : 0
    faces with interpolation weights (0..1)  < 0.02        : 0
    faces with volume ratio of neighbour cells < 0.01      : 0
    faces on cells with determinant < 0.001                : 0

Iteration 13
Moving mesh using displacement scaling : min:0.00012207031  max:1
Checking faces in error :
    non-orthogonality > 75  degrees                        : 4
    faces with concavity > 80  degrees                     : 0
    faces with area < 1e-13 m^2                            : 0
    faces with skewness > 4   (internal) or 20  (boundary) : 0
    faces with interpolation weights (0..1)  < 0.02        : 0
    faces with volume ratio of neighbour cells < 0.01      : 0
    faces on cells with determinant < 0.001                : 0

Iteration 14
Moving mesh using displacement scaling : min:6.1035156e-05  max:1
Checking faces in error :
    non-orthogonality > 75  degrees                        : 4
    faces with concavity > 80  degrees                     : 0
    faces with area < 1e-13 m^2                            : 0
    faces with skewness > 4   (internal) or 20  (boundary) : 0
    faces with interpolation weights (0..1)  < 0.02        : 0
    faces with volume ratio of neighbour cells < 0.01      : 0
    faces on cells with determinant < 0.001                : 0

Iteration 15
Displacement scaling for error reduction set to 0.
Moving mesh using displacement scaling : min:3.0517578e-05  max:1
Checking faces in error :
    non-orthogonality > 75  degrees                        : 4
    faces with concavity > 80  degrees                     : 0
    faces with area < 1e-13 m^2                            : 0
    faces with skewness > 4   (internal) or 20  (boundary) : 0
    faces with interpolation weights (0..1)  < 0.02        : 0
    faces with volume ratio of neighbour cells < 0.01      : 0
    faces on cells with determinant < 0.001                : 0

Iteration 16
Moving mesh using displacement scaling : min:0  max:1
Checking faces in error :
    non-orthogonality > 75  degrees                        : 0
    faces with concavity > 80  degrees                     : 0
    faces with area < 1e-13 m^2                            : 0
    faces with skewness > 4   (internal) or 20  (boundary) : 0
    faces with interpolation weights (0..1)  < 0.02        : 0
    faces with volume ratio of neighbour cells < 0.01      : 0
    faces on cells with determinant < 0.001                : 0
Successfully moved mesh
Moved mesh in = 34.94 s



Morph iteration 2
-----------------
Calculating patchDisplacement as distance to nearest surface point ...
    non-zone points : attract to nearest of all non-zone surfaces
    zone points     : attract to zone surface only

Wanted displacement : average:2.1214159e-05 min:7.139524e-19 max:0.00049204342
Calculated surface displacement in = 0.09 s


Detecting near surfaces ...
Overriding nearest with intersection of close gaps at 0 out of 190145 points.
Overriding displacement on features :
   implicit features    : false
   explicit features    : true
   multi-patch features : true

Detected 0 baffle edges out of 371272 edges.
Baffle points     : 0 of which attracted to :
    feature point : 0
    feature edge  : 0
    rest          : 0

--> FOAM Warning : 
    From Foam::treeBoundBox::treeBoundBox(const Foam::UList<Foam::Vector<double> >&)
    in file meshes/treeBoundBox/treeBoundBox.C at line 70
    No bounding box for zero-sized pointField
Initially selected 10606 mesh points out of 190145 for reverse attraction.
Selected 26647 mesh points out of 190145 for reverse attraction.
Stringing feature edges : changed 1448 points
Stringing feature edges : changed 26 points
Stringing feature edges : changed 1 points
Stringing feature edges : changed 0 points
Attraction:
    linear   : max:(0.00036794921 2.1684043e-19 -0.00032668043) avg:(1.1355753e-06 6.1697724e-07 -8.814434e-06)
    feature  : max:(-5.9898576e-05 8.1315163e-20 -7.2000582e-19) avg:(-1.1273082e-08 1.8110848e-07 2.8239718e-07)
Feature analysis : total master points :190145 of which attracted to :
    feature point   : 7
    feature edge    : 10908
    nearest surface : 0
    rest            : 179230

Smoothing displacement ...
Iteration 0
Iteration 10
Iteration 20
Iteration 30
Iteration 40
Iteration 50
Iteration 60
Iteration 70
Iteration 80
Iteration 90
Displacement smoothed in = 14.58 s


Moving mesh ...

Iteration 0
Moving mesh using displacement scaling : min:1  max:1
Checking faces in error :
    non-orthogonality > 75  degrees                        : 9
    faces with concavity > 80  degrees                     : 0
    faces with area < 1e-13 m^2                            : 0
    faces with skewness > 4   (internal) or 20  (boundary) : 0
    faces with interpolation weights (0..1)  < 0.02        : 0
    faces with volume ratio of neighbour cells < 0.01      : 0
    faces on cells with determinant < 0.001                : 0

Iteration 1
Moving mesh using displacement scaling : min:0.5  max:1
Checking faces in error :
    non-orthogonality > 75  degrees                        : 7
    faces with concavity > 80  degrees                     : 0
    faces with area < 1e-13 m^2                            : 0
    faces with skewness > 4   (internal) or 20  (boundary) : 0
    faces with interpolation weights (0..1)  < 0.02        : 0
    faces with volume ratio of neighbour cells < 0.01      : 0
    faces on cells with determinant < 0.001                : 0

Iteration 2
Moving mesh using displacement scaling : min:0.25  max:1
Checking faces in error :
    non-orthogonality > 75  degrees                        : 6
    faces with concavity > 80  degrees                     : 0
    faces with area < 1e-13 m^2                            : 0
    faces with skewness > 4   (internal) or 20  (boundary) : 0
    faces with interpolation weights (0..1)  < 0.02        : 0
    faces with volume ratio of neighbour cells < 0.01      : 0
    faces on cells with determinant < 0.001                : 0

Iteration 3
Moving mesh using displacement scaling : min:0.125  max:1
Checking faces in error :
    non-orthogonality > 75  degrees                        : 6
    faces with concavity > 80  degrees                     : 0
    faces with area < 1e-13 m^2                            : 0
    faces with skewness > 4   (internal) or 20  (boundary) : 0
    faces with interpolation weights (0..1)  < 0.02        : 0
    faces with volume ratio of neighbour cells < 0.01      : 0
    faces on cells with determinant < 0.001                : 0

Iteration 4
Moving mesh using displacement scaling : min:0.0625  max:1
Checking faces in error :
    non-orthogonality > 75  degrees                        : 5
    faces with concavity > 80  degrees                     : 0
    faces with area < 1e-13 m^2                            : 0
    faces with skewness > 4   (internal) or 20  (boundary) : 0
    faces with interpolation weights (0..1)  < 0.02        : 0
    faces with volume ratio of neighbour cells < 0.01      : 0
    faces on cells with determinant < 0.001                : 0

Iteration 5
Moving mesh using displacement scaling : min:0.03125  max:1
Checking faces in error :
    non-orthogonality > 75  degrees                        : 5
    faces with concavity > 80  degrees                     : 0
    faces with area < 1e-13 m^2                            : 0
    faces with skewness > 4   (internal) or 20  (boundary) : 0
    faces with interpolation weights (0..1)  < 0.02        : 0
    faces with volume ratio of neighbour cells < 0.01      : 0
    faces on cells with determinant < 0.001                : 0

Iteration 6
Moving mesh using displacement scaling : min:0.015625  max:1
Checking faces in error :
    non-orthogonality > 75  degrees                        : 5
    faces with concavity > 80  degrees                     : 0
    faces with area < 1e-13 m^2                            : 0
    faces with skewness > 4   (internal) or 20  (boundary) : 0
    faces with interpolation weights (0..1)  < 0.02        : 0
    faces with volume ratio of neighbour cells < 0.01      : 0
    faces on cells with determinant < 0.001                : 0

Iteration 7
Moving mesh using displacement scaling : min:0.0078125  max:1
Checking faces in error :
    non-orthogonality > 75  degrees                        : 5
    faces with concavity > 80  degrees                     : 0
    faces with area < 1e-13 m^2                            : 0
    faces with skewness > 4   (internal) or 20  (boundary) : 0
    faces with interpolation weights (0..1)  < 0.02        : 0
    faces with volume ratio of neighbour cells < 0.01      : 0
    faces on cells with determinant < 0.001                : 0

Iteration 8
Moving mesh using displacement scaling : min:0.00390625  max:1
Checking faces in error :
    non-orthogonality > 75  degrees                        : 5
    faces with concavity > 80  degrees                     : 0
    faces with area < 1e-13 m^2                            : 0
    faces with skewness > 4   (internal) or 20  (boundary) : 0
    faces with interpolation weights (0..1)  < 0.02        : 0
    faces with volume ratio of neighbour cells < 0.01      : 0
    faces on cells with determinant < 0.001                : 0

Iteration 9
Moving mesh using displacement scaling : min:0.001953125  max:1
Checking faces in error :
    non-orthogonality > 75  degrees                        : 5
    faces with concavity > 80  degrees                     : 0
    faces with area < 1e-13 m^2                            : 0
    faces with skewness > 4   (internal) or 20  (boundary) : 0
    faces with interpolation weights (0..1)  < 0.02        : 0
    faces with volume ratio of neighbour cells < 0.01      : 0
    faces on cells with determinant < 0.001                : 0

Iteration 10
Moving mesh using displacement scaling : min:0.0009765625  max:1
Checking faces in error :
    non-orthogonality > 75  degrees                        : 4
    faces with concavity > 80  degrees                     : 0
    faces with area < 1e-13 m^2                            : 0
    faces with skewness > 4   (internal) or 20  (boundary) : 0
    faces with interpolation weights (0..1)  < 0.02        : 0
    faces with volume ratio of neighbour cells < 0.01      : 0
    faces on cells with determinant < 0.001                : 0

Iteration 11
Moving mesh using displacement scaling : min:0.00048828125  max:1
Checking faces in error :
    non-orthogonality > 75  degrees                        : 4
    faces with concavity > 80  degrees                     : 0
    faces with area < 1e-13 m^2                            : 0
    faces with skewness > 4   (internal) or 20  (boundary) : 0
    faces with interpolation weights (0..1)  < 0.02        : 0
    faces with volume ratio of neighbour cells < 0.01      : 0
[...]
    faces with skewness > 4   (internal) or 20  (boundary) : 0
    faces with interpolation weights (0..1)  < 0.02        : 0
    faces with volume ratio of neighbour cells < 0.01      : 0
    faces on cells with determinant < 0.001                : 0

Iteration 12
Moving mesh using displacement scaling : min:0.00024414062  max:1
Checking faces in error :
    non-orthogonality > 75  degrees                        : 55
    faces with concavity > 80  degrees                     : 0
    faces with area < 1e-13 m^2                            : 0
    faces with skewness > 4   (internal) or 20  (boundary) : 0
    faces with interpolation weights (0..1)  < 0.02        : 0
    faces with volume ratio of neighbour cells < 0.01      : 0
    faces on cells with determinant < 0.001                : 0

Iteration 13
Moving mesh using displacement scaling : min:0.00012207031  max:1
Checking faces in error :
    non-orthogonality > 75  degrees                        : 56
    faces with concavity > 80  degrees                     : 0
    faces with area < 1e-13 m^2                            : 0
    faces with skewness > 4   (internal) or 20  (boundary) : 0
    faces with interpolation weights (0..1)  < 0.02        : 0
    faces with volume ratio of neighbour cells < 0.01      : 0
    faces on cells with determinant < 0.001                : 0

Iteration 14
Moving mesh using displacement scaling : min:6.1035156e-05  max:1
Checking faces in error :
    non-orthogonality > 75  degrees                        : 55
    faces with concavity > 80  degrees                     : 0
    faces with area < 1e-13 m^2                            : 0
    faces with skewness > 4   (internal) or 20  (boundary) : 0
    faces with interpolation weights (0..1)  < 0.02        : 0
    faces with volume ratio of neighbour cells < 0.01      : 0
    faces on cells with determinant < 0.001                : 0

Iteration 15
Displacement scaling for error reduction set to 0.
Moving mesh using displacement scaling : min:3.0517578e-05  max:1
Checking faces in error :
    non-orthogonality > 75  degrees                        : 54
    faces with concavity > 80  degrees                     : 0
    faces with area < 1e-13 m^2                            : 0
    faces with skewness > 4   (internal) or 20  (boundary) : 0
    faces with interpolation weights (0..1)  < 0.02        : 0
    faces with volume ratio of neighbour cells < 0.01      : 0
    faces on cells with determinant < 0.001                : 0

Iteration 16
Moving mesh using displacement scaling : min:0  max:1
Checking faces in error :
    non-orthogonality > 75  degrees                        : 7
    faces with concavity > 80  degrees                     : 0
    faces with area < 1e-13 m^2                            : 0
    faces with skewness > 4   (internal) or 20  (boundary) : 0
    faces with interpolation weights (0..1)  < 0.02        : 0
    faces with volume ratio of neighbour cells < 0.01      : 0
    faces on cells with determinant < 0.001                : 0

Iteration 17
Moving mesh using displacement scaling : min:0  max:1
Checking faces in error :
    non-orthogonality > 75  degrees                        : 0
    faces with concavity > 80  degrees                     : 0
    faces with area < 1e-13 m^2                            : 0
    faces with skewness > 4   (internal) or 20  (boundary) : 0
    faces with interpolation weights (0..1)  < 0.02        : 0
    faces with volume ratio of neighbour cells < 0.01      : 0
    faces on cells with determinant < 0.001                : 0
Successfully moved mesh
Moved mesh in = 51.12 s



Morph iteration 14
-----------------
Calculating patchDisplacement as distance to nearest surface point ...
    non-zone points : attract to nearest of all non-zone surfaces
    zone points     : attract to zone surface only

Wanted displacement : average:3.3241929e-08 min:7.0707942e-19 max:9.9002548e-05
Calculated surface displacement in = 0.1 s


Detecting near surfaces ...
Overriding nearest with intersection of close gaps at 0 out of 190145 points.
Overriding displacement on features :
   implicit features    : false
   explicit features    : true
   multi-patch features : true

Detected 0 baffle edges out of 371272 edges.
Baffle points     : 0 of which attracted to :
    feature point : 0
    feature edge  : 0
    rest          : 0

--> FOAM Warning : 
    From Foam::treeBoundBox::treeBoundBox(const Foam::UList<Foam::Vector<double> >&)
    in file meshes/treeBoundBox/treeBoundBox.C at line 70
    No bounding box for zero-sized pointField
Initially selected 10416 mesh points out of 190145 for reverse attraction.
Selected 26269 mesh points out of 190145 for reverse attraction.
Stringing feature edges : changed 385 points
Stringing feature edges : changed 0 points
Attraction:
    linear   : max:(0 -9.9002548e-05 -3.469447e-18) avg:(-3.549983e-09 1.2954637e-09 3.4806127e-09)
    feature  : max:(2.5561901e-06 1.5030424e-05 -2.2694907e-06) avg:(-1.5916487e-09 6.2871565e-09 3.8008243e-09)
Feature analysis : total master points :190145 of which attracted to :
    feature point   : 7
    feature edge    : 10684
    nearest surface : 0
    rest            : 179454

Smoothing displacement ...
Iteration 0
Iteration 10
Iteration 20
Iteration 30
Iteration 40
Iteration 50
Iteration 60
Iteration 70
Iteration 80
Iteration 90
Displacement smoothed in = 13.47 s


Moving mesh ...

Iteration 0
Moving mesh using displacement scaling : min:1  max:1
Checking faces in error :
    non-orthogonality > 75  degrees                        : 112
    faces with concavity > 80  degrees                     : 5
    faces with area < 1e-13 m^2                            : 0
    faces with skewness > 4   (internal) or 20  (boundary) : 13
    faces with interpolation weights (0..1)  < 0.02        : 0
    faces with volume ratio of neighbour cells < 0.01      : 0
    faces on cells with determinant < 0.001                : 0

Iteration 1
Moving mesh using displacement scaling : min:0.5  max:1
Checking faces in error :
    non-orthogonality > 75  degrees                        : 101
    faces with concavity > 80  degrees                     : 3
    faces with area < 1e-13 m^2                            : 0
    faces with skewness > 4   (internal) or 20  (boundary) : 5
    faces with interpolation weights (0..1)  < 0.02        : 0
    faces with volume ratio of neighbour cells < 0.01      : 0
    faces on cells with determinant < 0.001                : 0

Iteration 2
Moving mesh using displacement scaling : min:0.25  max:1
Checking faces in error :
    non-orthogonality > 75  degrees                        : 70
    faces with concavity > 80  degrees                     : 1
    faces with area < 1e-13 m^2                            : 0
    faces with skewness > 4   (internal) or 20  (boundary) : 0
    faces with interpolation weights (0..1)  < 0.02        : 0
    faces with volume ratio of neighbour cells < 0.01      : 0
    faces on cells with determinant < 0.001                : 0

Iteration 3
Moving mesh using displacement scaling : min:0.125  max:1
Checking faces in error :
    non-orthogonality > 75  degrees                        : 60
    faces with concavity > 80  degrees                     : 1
    faces with area < 1e-13 m^2                            : 0
    faces with skewness > 4   (internal) or 20  (boundary) : 0
    faces with interpolation weights (0..1)  < 0.02        : 0
    faces with volume ratio of neighbour cells < 0.01      : 0
    faces on cells with determinant < 0.001                : 0

Iteration 4
Moving mesh using displacement scaling : min:0.0625  max:1
Checking faces in error :
    non-orthogonality > 75  degrees                        : 61
    faces with concavity > 80  degrees                     : 1
    faces with area < 1e-13 m^2                            : 0
    faces with skewness > 4   (internal) or 20  (boundary) : 0
    faces with interpolation weights (0..1)  < 0.02        : 0
    faces with volume ratio of neighbour cells < 0.01      : 0
    faces on cells with determinant < 0.001                : 0

Iteration 5
Moving mesh using displacement scaling : min:0.03125  max:1
Checking faces in error :
    non-orthogonality > 75  degrees                        : 58
    faces with concavity > 80  degrees                     : 1
    faces with area < 1e-13 m^2                            : 0
    faces with skewness > 4   (internal) or 20  (boundary) : 0
    faces with interpolation weights (0..1)  < 0.02        : 0
    faces with volume ratio of neighbour cells < 0.01      : 0
    faces on cells with determinant < 0.001                : 0

Iteration 6
Moving mesh using displacement scaling : min:0.015625  max:1
Checking faces in error :
    non-orthogonality > 75  degrees                        : 52
    faces with concavity > 80  degrees                     : 1
    faces with area < 1e-13 m^2                            : 0
    faces with skewness > 4   (internal) or 20  (boundary) : 0
    faces with interpolation weights (0..1)  < 0.02        : 0
    faces with volume ratio of neighbour cells < 0.01      : 0
    faces on cells with determinant < 0.001                : 0

Iteration 7
Moving mesh using displacement scaling : min:0.0078125  max:1
Checking faces in error :
    non-orthogonality > 75  degrees                        : 48
    faces with concavity > 80  degrees                     : 1
    faces with area < 1e-13 m^2                            : 0
    faces with skewness > 4   (internal) or 20  (boundary) : 0
    faces with interpolation weights (0..1)  < 0.02        : 0
    faces with volume ratio of neighbour cells < 0.01      : 0
    faces on cells with determinant < 0.001                : 0

Iteration 8
Moving mesh using displacement scaling : min:0.00390625  max:1
Checking faces in error :
    non-orthogonality > 75  degrees                        : 50
    faces with concavity > 80  degrees                     : 1
    faces with area < 1e-13 m^2                            : 0
    faces with skewness > 4   (internal) or 20  (boundary) : 0
    faces with interpolation weights (0..1)  < 0.02        : 0
    faces with volume ratio of neighbour cells < 0.01      : 0
    faces on cells with determinant < 0.001                : 0

Iteration 9
Moving mesh using displacement scaling : min:0.001953125  max:1
Checking faces in error :
    non-orthogonality > 75  degrees                        : 46
    faces with concavity > 80  degrees                     : 1
    faces with area < 1e-13 m^2                            : 0
    faces with skewness > 4   (internal) or 20  (boundary) : 0
    faces with interpolation weights (0..1)  < 0.02        : 0
    faces with volume ratio of neighbour cells < 0.01      : 0
    faces on cells with determinant < 0.001                : 0

Iteration 10
Moving mesh using displacement scaling : min:0.0009765625  max:1
Checking faces in error :
    non-orthogonality > 75  degrees                        : 44
    faces with concavity > 80  degrees                     : 1
    faces with area < 1e-13 m^2                            : 0
    faces with skewness > 4   (internal) or 20  (boundary) : 0
    faces with interpolation weights (0..1)  < 0.02        : 0
    faces with volume ratio of neighbour cells < 0.01      : 0
    faces on cells with determinant < 0.001                : 0

Iteration 11
Moving mesh using displacement scaling : min:0.00048828125  max:1
Checking faces in error :
    non-orthogonality > 75  degrees                        : 48
    faces with concavity > 80  degrees                     : 1
    faces with area < 1e-13 m^2                            : 0
    faces with skewness > 4   (internal) or 20  (boundary) : 0
    faces with interpolation weights (0..1)  < 0.02        : 0
    faces with volume ratio of neighbour cells < 0.01      : 0
    faces on cells with determinant < 0.001                : 0

Iteration 12
Moving mesh using displacement scaling : min:0.00024414062  max:1
Checking faces in error :
    non-orthogonality > 75  degrees                        : 41
    faces with concavity > 80  degrees                     : 1
    faces with area < 1e-13 m^2                            : 0
    faces with skewness > 4   (internal) or 20  (boundary) : 0
    faces with interpolation weights (0..1)  < 0.02        : 0
    faces with volume ratio of neighbour cells < 0.01      : 0
    faces on cells with determinant < 0.001                : 0

Iteration 13
Moving mesh using displacement scaling : min:0.00012207031  max:1
Checking faces in error :
    non-orthogonality > 75  degrees                        : 41
    faces with concavity > 80  degrees                     : 0
    faces with area < 1e-13 m^2                            : 0
    faces with skewness > 4   (internal) or 20  (boundary) : 0
    faces with interpolation weights (0..1)  < 0.02        : 0
    faces with volume ratio of neighbour cells < 0.01      : 0
    faces on cells with determinant < 0.001                : 0

Iteration 14
Moving mesh using displacement scaling : min:6.1035156e-05  max:1
Checking faces in error :
    non-orthogonality > 75  degrees                        : 41
    faces with concavity > 80  degrees                     : 0
    faces with area < 1e-13 m^2                            : 0
    faces with skewness > 4   (internal) or 20  (boundary) : 0
    faces with interpolation weights (0..1)  < 0.02        : 0
    faces with volume ratio of neighbour cells < 0.01      : 0
    faces on cells with determinant < 0.001                : 0

Iteration 15
Displacement scaling for error reduction set to 0.
Moving mesh using displacement scaling : min:3.0517578e-05  max:1
Checking faces in error :
    non-orthogonality > 75  degrees                        : 40
    faces with concavity > 80  degrees                     : 0
    faces with area < 1e-13 m^2                            : 0
    faces with skewness > 4   (internal) or 20  (boundary) : 0
    faces with interpolation weights (0..1)  < 0.02        : 0
    faces with volume ratio of neighbour cells < 0.01      : 0
    faces on cells with determinant < 0.001                : 0

Iteration 16
Moving mesh using displacement scaling : min:0  max:1
Checking faces in error :
    non-orthogonality > 75  degrees                        : 1
    faces with concavity > 80  degrees                     : 0
    faces with area < 1e-13 m^2                            : 0
    faces with skewness > 4   (internal) or 20  (boundary) : 0
    faces with interpolation weights (0..1)  < 0.02        : 0
    faces with volume ratio of neighbour cells < 0.01      : 0
    faces on cells with determinant < 0.001                : 0

Iteration 17
Moving mesh using displacement scaling : min:0  max:1
Checking faces in error :
    non-orthogonality > 75  degrees                        : 1
    faces with concavity > 80  degrees                     : 0
    faces with area < 1e-13 m^2                            : 0
    faces with skewness > 4   (internal) or 20  (boundary) : 0
    faces with interpolation weights (0..1)  < 0.02        : 0
    faces with volume ratio of neighbour cells < 0.01      : 0
    faces on cells with determinant < 0.001                : 0

Iteration 18
Moving mesh using displacement scaling : min:0  max:1
Checking faces in error :
    non-orthogonality > 75  degrees                        : 2
    faces with concavity > 80  degrees                     : 0
    faces with area < 1e-13 m^2                            : 0
    faces with skewness > 4   (internal) or 20  (boundary) : 0
    faces with interpolation weights (0..1)  < 0.02        : 0
    faces with volume ratio of neighbour cells < 0.01      : 0
    faces on cells with determinant < 0.001                : 0

Iteration 19
Moving mesh using displacement scaling : min:0  max:1
Checking faces in error :
    non-orthogonality > 75  degrees                        : 0
    faces with concavity > 80  degrees                     : 0
    faces with area < 1e-13 m^2                            : 0
    faces with skewness > 4   (internal) or 20  (boundary) : 0
    faces with interpolation weights (0..1)  < 0.02        : 0
    faces with volume ratio of neighbour cells < 0.01      : 0
    faces on cells with determinant < 0.001                : 0
Successfully moved mesh
Moved mesh in = 54.02 s


Repatching faces according to nearest surface ...
Repatched 0 faces in = 0.86 s


Edge intersection testing:
    Number of edges             : 12729306
    Number of edges to retest   : 1696319
    Number of intersected edges : 180864
Merging 24250 sets of faces.

Edge intersection testing:
    Number of edges             : 12703106
    Number of edges to retest   : 106438
    Number of intersected edges : 154664

Undo iteration 0
----------------
Checking faces in error :
    non-orthogonality > 75  degrees                        : 12
    faces with concavity > 80  degrees                     : 0
    faces with area < 1e-13 m^2                            : 0
    faces with skewness > 4   (internal) or 20  (boundary) : 0
    faces with interpolation weights (0..1)  < 0.02        : 0
    faces with volume ratio of neighbour cells < 0.01      : 0
    faces on cells with determinant < 0.001                : 0
Masters that need to be restored:14
Edge intersection testing:
    Number of edges             : 12703120
    Number of edges to retest   : 98
    Number of intersected edges : 154678


Undo iteration 1
----------------
Checking faces in error :
    non-orthogonality > 75  degrees                        : 0
    faces with concavity > 80  degrees                     : 0
    faces with area < 1e-13 m^2                            : 0
    faces with skewness > 4   (internal) or 20  (boundary) : 0
    faces with interpolation weights (0..1)  < 0.02        : 0
    faces with volume ratio of neighbour cells < 0.01      : 0
    faces on cells with determinant < 0.001                : 0

Merging all points on surface that
- are used by only two boundary faces and
- make an angle with a cosine of more than 0.8660254.

Removing 22684 straight edge points ...

Edge intersection testing:
    Number of edges             : 12703120
    Number of edges to retest   : 106368
    Number of intersected edges : 154678

Undo iteration 0
----------------
Checking faces in error :
    non-orthogonality > 75  degrees                        : 3
    faces with concavity > 80  degrees                     : 0
    faces with area < 1e-13 m^2                            : 0
    faces with skewness > 4   (internal) or 20  (boundary) : 0
    faces with interpolation weights (0..1)  < 0.02        : 0
    faces with volume ratio of neighbour cells < 0.01      : 0
    faces on cells with determinant < 0.001                : 0
Detected 0 error faces on boundaries that have been merged. These will be restored to their original faces.

Detected 3 error faces in mesh. Restoring neighbours of faces in error.

Edge intersection testing:
    Number of edges             : 12703120
    Number of edges to retest   : 153
    Number of intersected edges : 154678
Snapped mesh : cells:4134097  faces:12703120  points:4446079  unbalance:0.008272907
Cells per refinement level:
    0	3583535
    1	2120
    2	7421
    3	15812
    4	36092
    5	86084
    6	173158
    7	229875
Writing mesh to time constant
Wrote mesh in = 0.31 s.
Mesh snapped in = 921.37 s.
Checking final mesh ...
Checking faces in error :
    non-orthogonality > 75  degrees                        : 0
    faces with concavity > 80  degrees                     : 0
    faces with area < 1e-13 m^2                            : 0
    faces with skewness > 4   (internal) or 20  (boundary) : 0
    faces with interpolation weights (0..1)  < 0.02        : 0
    faces with volume ratio of neighbour cells < 0.01      : 0
    faces on cells with determinant < 0.001                : 0
Finished meshing without any errors
Finished meshing in = 1466.56 s.
End

Finalising parallel run
